<edges>
    <edge from="1" id="1to2" to="2" speed="100" numLanes="2"/>
    <edge from="2" id="2to3" to="3" speed="100" numLanes="2"/>
    <edge from="3" id="3to1" to="1" speed="100" numLanes="2"/>
</edges>
