<?xml version="1.0" encoding="UTF-8"?>

<!-- generated on Tue Aug 20 14:20:28 2019 by SUMO polyconvert Version 0.32.0
<?xml version="1.0" encoding="UTF-8"?>

<configuration xmlns:xsi="http://www.w3.org/2001/XMLSchema-instance" xsi:noNamespaceSchemaLocation="http://sumo.dlr.de/xsd/polyconvertConfiguration.xsd">

    <input>
        <visum-files value="usp.net.xml"/>
    </input>

    <output>
        <output-file value="converted.poly.xml"/>
    </output>

    <projection>
        <proj.scale value="1"/>
    </projection>

</configuration>
-->

<additional xmlns:xsi="http://www.w3.org/2001/XMLSchema-instance" xsi:noNamespaceSchemaLocation="http://sumo.dlr.de/xsd/additional_file.xsd">
</additional>
