<?xml version="1.0" encoding="UTF-8"?>

<!-- generated on qua 13 nov 2019 16:13:26 -03 by Netedit Version 0.32.0
<?xml version="1.0" encoding="UTF-8"?>

<configuration xmlns:xsi="http://www.w3.org/2001/XMLSchema-instance" xsi:noNamespaceSchemaLocation="http://sumo.dlr.de/xsd/netconvertConfiguration.xsd">

    <input>
        <sumo-net-file value="usp.net.xml"/>
    </input>

    <output>
        <output-file value="usp.net.xml"/>
    </output>

    <processing>
        <no-turnarounds value="true"/>
        <offset.disable-normalization value="true"/>
        <lefthand value="false"/>
        <junctions.corner-detail value="0"/>
        <rectangular-lane-cut value="false"/>
        <walkingareas value="false"/>
    </processing>

</configuration>
-->

<net version="0.27" xmlns:xsi="http://www.w3.org/2001/XMLSchema-instance" xsi:noNamespaceSchemaLocation="http://sumo.dlr.de/xsd/net_file.xsd">

    <location netOffset="-658084.21,-5415927.80" convBoundary="0.00,0.00,4431.57,2974.44" origBoundary="11.156879,48.875046,11.217326,48.902666" projParameter="+proj=utm +zone=32 +ellps=WGS84 +datum=WGS84 +units=m +no_defs"/>

    <edge id=":1_0" function="internal">
        <lane id=":1_0_0" index="0" speed="13.89" length="4.82" shape="419.77,826.59 419.03,825.30 419.03,824.37 419.77,823.82 421.25,823.63"/>
    </edge>
    <edge id=":10_0" function="internal">
        <lane id=":10_0_0" index="0" speed="13.89" length="4.82" shape="129.86,1970.22 130.64,1968.96 131.45,1968.51 132.29,1968.89 133.16,1970.10"/>
    </edge>
    <edge id=":1023_0" function="internal">
        <lane id=":1023_0_0" index="0" speed="13.89" length="4.90" shape="957.32,2026.00 956.31,2025.14 955.25,2024.77 954.14,2024.90 952.97,2025.54"/>
    </edge>
    <edge id=":1023_1" function="internal">
        <lane id=":1023_1_0" index="0" speed="13.89" length="9.11" shape="957.32,2026.00 955.84,2023.92 955.05,2021.82 954.97,2019.71 955.58,2017.59"/>
    </edge>
    <edge id=":1023_2" function="internal">
        <lane id=":1023_2_0" index="0" speed="13.89" length="4.82" shape="957.32,2026.00 957.12,2024.53 957.47,2023.67 958.36,2023.44 959.80,2023.82"/>
    </edge>
    <edge id=":1023_3" function="internal">
        <lane id=":1023_3_0" index="0" speed="13.89" length="5.32" shape="958.58,2018.95 958.27,2020.12 958.37,2021.32 958.88,2022.56 959.80,2023.82"/>
    </edge>
    <edge id=":1023_4" function="internal">
        <lane id=":1023_4_0" index="0" speed="13.89" length="8.82" shape="958.58,2018.95 957.45,2021.28 956.42,2022.76 955.07,2023.98 952.97,2025.54"/>
    </edge>
    <edge id=":1023_5" function="internal">
        <lane id=":1023_5_0" index="0" speed="13.89" length="2.52" shape="958.58,2018.95 957.32,2019.74 956.40,2019.78 956.33,2019.69"/>
    </edge>
    <edge id=":1023_9" function="internal">
        <lane id=":1023_9_0" index="0" speed="13.89" length="2.30" shape="956.33,2019.69 955.82,2019.06 955.58,2017.59"/>
    </edge>
    <edge id=":1023_6" function="internal">
        <lane id=":1023_6_0" index="0" speed="13.89" length="7.12" shape="951.01,2022.88 952.71,2021.63 953.81,2020.65 954.65,2019.47 955.58,2017.59"/>
    </edge>
    <edge id=":1023_7" function="internal">
        <lane id=":1023_7_0" index="0" speed="13.89" length="4.76" shape="951.01,2022.88 953.37,2021.60 955.44,2021.36"/>
    </edge>
    <edge id=":1023_8" function="internal">
        <lane id=":1023_8_0" index="0" speed="13.89" length="2.41" shape="951.01,2022.88 952.50,2022.81 953.32,2023.23"/>
    </edge>
    <edge id=":1023_10" function="internal">
        <lane id=":1023_10_0" index="0" speed="13.89" length="5.13" shape="955.44,2021.36 955.62,2021.34 957.76,2022.08 959.80,2023.82"/>
    </edge>
    <edge id=":1023_11" function="internal">
        <lane id=":1023_11_0" index="0" speed="13.89" length="2.41" shape="953.32,2023.23 953.48,2024.14 952.97,2025.54"/>
    </edge>
    <edge id=":1076_0" function="internal">
        <lane id=":1076_0_0" index="0" speed="8.33" length="0.29" shape="1068.61,1991.20 1068.53,1991.22 1068.47,1991.24 1068.42,1991.26 1068.34,1991.30"/>
    </edge>
    <edge id=":1076_1" function="internal">
        <lane id=":1076_1_0" index="0" speed="8.33" length="2.41" shape="1068.61,1991.20 1067.20,1990.72 1066.59,1990.03"/>
    </edge>
    <edge id=":1076_4" function="internal">
        <lane id=":1076_4_0" index="0" speed="8.33" length="2.41" shape="1066.59,1990.03 1066.78,1989.13 1067.76,1988.01"/>
    </edge>
    <edge id=":1076_2" function="internal">
        <lane id=":1076_2_0" index="0" speed="8.33" length="0.89" shape="1066.93,1988.32 1067.16,1988.20 1067.33,1988.13 1067.50,1988.08 1067.76,1988.01"/>
    </edge>
    <edge id=":1076_3" function="internal">
        <lane id=":1076_3_0" index="0" speed="8.33" length="2.41" shape="1066.93,1988.32 1068.40,1988.53 1069.12,1989.10"/>
    </edge>
    <edge id=":1076_5" function="internal">
        <lane id=":1076_5_0" index="0" speed="8.33" length="2.41" shape="1069.12,1989.10 1069.11,1990.02 1068.34,1991.30"/>
    </edge>
    <edge id=":1096_0" function="internal">
        <lane id=":1096_0_0" index="0" speed="13.89" length="9.99" shape="404.64,2114.03 403.00,2123.88"/>
    </edge>
    <edge id=":1096_1" function="internal">
        <lane id=":1096_1_0" index="0" speed="13.89" length="5.71" shape="404.64,2114.03 403.61,2117.41 402.09,2118.98"/>
    </edge>
    <edge id=":1096_2" function="internal">
        <lane id=":1096_2_0" index="0" speed="13.89" length="2.41" shape="404.64,2114.03 403.63,2115.12 402.75,2115.41"/>
    </edge>
    <edge id=":1096_9" function="internal">
        <lane id=":1096_9_0" index="0" speed="13.89" length="6.52" shape="402.09,2118.98 401.81,2119.27 399.25,2119.59 395.93,2118.37"/>
    </edge>
    <edge id=":1096_10" function="internal">
        <lane id=":1096_10_0" index="0" speed="13.89" length="2.41" shape="402.75,2115.41 402.00,2114.87 401.37,2113.52"/>
    </edge>
    <edge id=":1096_3" function="internal">
        <lane id=":1096_3_0" index="0" speed="13.89" length="5.46" shape="397.49,2115.46 398.97,2116.00 400.11,2115.86 400.91,2115.03 401.37,2113.52"/>
    </edge>
    <edge id=":1096_4" function="internal">
        <lane id=":1096_4_0" index="0" speed="13.89" length="10.80" shape="397.49,2115.46 400.24,2117.27 402.08,2119.28 403.00,2121.48 403.00,2123.88"/>
    </edge>
    <edge id=":1096_5" function="internal">
        <lane id=":1096_5_0" index="0" speed="13.89" length="4.82" shape="397.49,2115.46 398.19,2116.77 398.16,2117.69 397.41,2118.23 395.93,2118.37"/>
    </edge>
    <edge id=":1096_6" function="internal">
        <lane id=":1096_6_0" index="0" speed="13.89" length="6.64" shape="399.76,2123.29 399.70,2122.00 399.04,2120.75 397.78,2119.54 395.93,2118.37"/>
    </edge>
    <edge id=":1096_7" function="internal">
        <lane id=":1096_7_0" index="0" speed="13.89" length="9.90" shape="399.76,2123.29 401.37,2113.52"/>
    </edge>
    <edge id=":1096_8" function="internal">
        <lane id=":1096_8_0" index="0" speed="13.89" length="2.41" shape="399.76,2123.29 400.79,2122.22 401.67,2121.96"/>
    </edge>
    <edge id=":1096_11" function="internal">
        <lane id=":1096_11_0" index="0" speed="13.89" length="2.41" shape="401.67,2121.96 402.41,2122.52 403.00,2123.88"/>
    </edge>
    <edge id=":1102_0" function="internal">
        <lane id=":1102_0_0" index="0" speed="7.64" length="5.27" shape="394.66,2159.88 394.23,2158.71 393.45,2157.81 392.31,2157.19 390.81,2156.85"/>
    </edge>
    <edge id=":1102_1" function="internal">
        <lane id=":1102_1_0" index="0" speed="13.89" length="8.99" shape="394.66,2159.88 394.21,2157.26 394.09,2155.43 394.28,2153.60 394.74,2150.98"/>
    </edge>
    <edge id=":1102_2" function="internal">
        <lane id=":1102_2_0" index="0" speed="13.89" length="2.41" shape="394.66,2159.88 395.24,2158.50 395.97,2157.94"/>
    </edge>
    <edge id=":1102_9" function="internal">
        <lane id=":1102_9_0" index="0" speed="13.89" length="2.41" shape="395.97,2157.94 396.86,2158.19 397.90,2159.25"/>
    </edge>
    <edge id=":1102_3" function="internal">
        <lane id=":1102_3_0" index="0" speed="13.89" length="7.77" shape="397.99,2151.56 397.58,2153.83 397.42,2155.41 397.51,2156.99 397.90,2159.25"/>
    </edge>
    <edge id=":1102_4" function="internal">
        <lane id=":1102_4_0" index="0" speed="7.64" length="4.91" shape="397.99,2151.56 397.13,2154.16 395.72,2155.82"/>
    </edge>
    <edge id=":1102_5" function="internal">
        <lane id=":1102_5_0" index="0" speed="13.89" length="2.41" shape="397.99,2151.56 396.96,2152.64 396.07,2152.89"/>
    </edge>
    <edge id=":1102_10" function="internal">
        <lane id=":1102_10_0" index="0" speed="7.64" length="5.13" shape="395.72,2155.82 395.65,2155.90 393.54,2156.80 390.81,2156.85"/>
    </edge>
    <edge id=":1102_11" function="internal">
        <lane id=":1102_11_0" index="0" speed="13.89" length="2.41" shape="396.07,2152.89 395.33,2152.34 394.74,2150.98"/>
    </edge>
    <edge id=":1102_6" function="internal">
        <lane id=":1102_6_0" index="0" speed="7.64" length="4.93" shape="391.21,2153.57 392.56,2153.55 393.59,2153.11 394.32,2152.25 394.74,2150.98"/>
    </edge>
    <edge id=":1102_7" function="internal">
        <lane id=":1102_7_0" index="0" speed="7.64" length="9.45" shape="391.21,2153.57 393.78,2154.19 395.75,2155.35 397.12,2157.03 397.90,2159.25"/>
    </edge>
    <edge id=":1102_8" function="internal">
        <lane id=":1102_8_0" index="0" speed="1.39" length="4.82" shape="391.21,2153.57 392.34,2154.54 392.65,2155.41 392.14,2156.18 390.81,2156.85"/>
    </edge>
    <edge id=":1103_0" function="internal">
        <lane id=":1103_0_0" index="0" speed="11.11" length="5.07" shape="408.44,2230.37 407.94,2229.11 407.14,2228.30 406.03,2227.93 404.62,2228.01"/>
    </edge>
    <edge id=":1103_1" function="internal">
        <lane id=":1103_1_0" index="0" speed="13.89" length="9.44" shape="408.44,2230.37 406.47,2221.14"/>
    </edge>
    <edge id=":1103_2" function="internal">
        <lane id=":1103_2_0" index="0" speed="13.89" length="2.41" shape="408.44,2230.37 408.96,2228.98 409.67,2228.39"/>
    </edge>
    <edge id=":1103_9" function="internal">
        <lane id=":1103_9_0" index="0" speed="13.89" length="2.41" shape="409.67,2228.39 410.56,2228.60 411.65,2229.62"/>
    </edge>
    <edge id=":1103_3" function="internal">
        <lane id=":1103_3_0" index="0" speed="13.89" length="9.31" shape="409.71,2220.51 411.65,2229.62"/>
    </edge>
    <edge id=":1103_4" function="internal">
        <lane id=":1103_4_0" index="0" speed="11.11" length="5.17" shape="409.71,2220.51 409.85,2223.34 409.04,2225.54"/>
    </edge>
    <edge id=":1103_5" function="internal">
        <lane id=":1103_5_0" index="0" speed="13.89" length="2.41" shape="409.71,2220.51 409.13,2221.88 408.40,2222.45"/>
    </edge>
    <edge id=":1103_10" function="internal">
        <lane id=":1103_10_0" index="0" speed="11.11" length="5.17" shape="409.04,2225.54 407.30,2227.09 404.62,2228.01"/>
    </edge>
    <edge id=":1103_11" function="internal">
        <lane id=":1103_11_0" index="0" speed="13.89" length="2.41" shape="408.40,2222.45 407.51,2222.20 406.47,2221.14"/>
    </edge>
    <edge id=":1103_6" function="internal">
        <lane id=":1103_6_0" index="0" speed="11.11" length="5.00" shape="404.01,2224.77 405.30,2224.32 406.15,2223.57 406.54,2222.51 406.47,2221.14"/>
    </edge>
    <edge id=":1103_7" function="internal">
        <lane id=":1103_7_0" index="0" speed="11.11" length="10.23" shape="404.01,2224.77 406.82,2224.63 409.03,2225.39 410.64,2227.05 411.65,2229.62"/>
    </edge>
    <edge id=":1103_8" function="internal">
        <lane id=":1103_8_0" index="0" speed="8.33" length="4.82" shape="404.01,2224.77 405.38,2225.35 405.93,2226.08 405.68,2226.97 404.62,2228.01"/>
    </edge>
    <edge id=":1111_0" function="internal">
        <lane id=":1111_0_0" index="0" speed="11.11" length="5.45" shape="451.02,2342.36 450.09,2341.08 449.07,2340.56 447.94,2340.79 446.71,2341.78"/>
    </edge>
    <edge id=":1111_1" function="internal">
        <lane id=":1111_1_0" index="0" speed="13.89" length="9.98" shape="451.02,2342.36 449.64,2339.73 448.67,2337.95 447.60,2336.23 445.92,2333.79"/>
    </edge>
    <edge id=":1111_2" function="internal">
        <lane id=":1111_2_0" index="0" speed="13.89" length="2.41" shape="451.02,2342.36 451.17,2340.88 451.70,2340.13"/>
    </edge>
    <edge id=":1111_9" function="internal">
        <lane id=":1111_9_0" index="0" speed="13.89" length="2.41" shape="451.70,2340.13 452.63,2340.11 453.93,2340.82"/>
    </edge>
    <edge id=":1111_3" function="internal">
        <lane id=":1111_3_0" index="0" speed="13.89" length="10.39" shape="448.62,2331.90 450.33,2334.40 451.48,2336.23 452.52,2338.13 453.93,2340.82"/>
    </edge>
    <edge id=":1111_4" function="internal">
        <lane id=":1111_4_0" index="0" speed="11.11" length="4.95" shape="448.62,2331.90 449.68,2334.20 449.72,2336.61"/>
    </edge>
    <edge id=":1111_5" function="internal">
        <lane id=":1111_5_0" index="0" speed="13.89" length="2.41" shape="448.62,2331.90 448.66,2333.39 448.22,2334.20"/>
    </edge>
    <edge id=":1111_10" function="internal">
        <lane id=":1111_10_0" index="0" speed="11.11" length="6.03" shape="449.72,2336.61 448.73,2339.14 446.71,2341.78"/>
    </edge>
    <edge id=":1111_11" function="internal">
        <lane id=":1111_11_0" index="0" speed="13.89" length="2.41" shape="448.22,2334.20 447.31,2334.33 445.92,2333.79"/>
    </edge>
    <edge id=":1111_6" function="internal">
        <lane id=":1111_6_0" index="0" speed="11.11" length="6.44" shape="444.30,2339.51 445.61,2337.87 446.32,2336.37 446.42,2335.01 445.92,2333.79"/>
    </edge>
    <edge id=":1111_7" function="internal">
        <lane id=":1111_7_0" index="0" speed="11.11" length="12.19" shape="444.30,2339.51 447.05,2337.31 449.57,2336.80 451.87,2337.96 453.93,2340.82"/>
    </edge>
    <edge id=":1111_8" function="internal">
        <lane id=":1111_8_0" index="0" speed="8.33" length="4.82" shape="444.30,2339.51 445.75,2339.18 446.64,2339.44 446.96,2340.31 446.71,2341.78"/>
    </edge>
    <edge id=":1121_0" function="internal">
        <lane id=":1121_0_0" index="0" speed="13.89" length="6.34" shape="727.16,2146.76 726.48,2144.89 725.57,2144.13 724.44,2144.48 723.08,2145.93"/>
    </edge>
    <edge id=":1121_1" function="internal">
        <lane id=":1121_1_0" index="0" speed="13.89" length="12.27" shape="727.16,2146.76 726.36,2142.63 726.07,2139.25 726.29,2136.61 727.03,2134.73"/>
    </edge>
    <edge id=":1121_2" function="internal">
        <lane id=":1121_2_0" index="0" speed="13.89" length="4.82" shape="727.16,2146.76 727.68,2145.36 728.39,2144.77 729.28,2144.99 730.37,2146.00"/>
    </edge>
    <edge id=":1121_3" function="internal">
        <lane id=":1121_3_0" index="0" speed="13.89" length="9.62" shape="729.78,2136.55 729.37,2137.82 729.33,2139.82 729.66,2142.55 730.37,2146.00"/>
    </edge>
    <edge id=":1121_4" function="internal">
        <lane id=":1121_4_0" index="0" speed="13.89" length="11.53" shape="729.78,2136.55 723.08,2145.93"/>
    </edge>
    <edge id=":1121_5" function="internal">
        <lane id=":1121_5_0" index="0" speed="13.89" length="2.53" shape="729.78,2136.55 728.41,2137.13 727.50,2137.02 727.44,2136.91"/>
    </edge>
    <edge id=":1121_9" function="internal">
        <lane id=":1121_9_0" index="0" speed="13.89" length="2.29" shape="727.44,2136.91 727.04,2136.22 727.03,2134.73"/>
    </edge>
    <edge id=":1121_6" function="internal">
        <lane id=":1121_6_0" index="0" speed="13.89" length="11.36" shape="720.42,2143.97 727.03,2134.73"/>
    </edge>
    <edge id=":1121_7" function="internal">
        <lane id=":1121_7_0" index="0" speed="13.89" length="6.59" shape="720.42,2143.97 723.73,2140.43 725.40,2139.93"/>
    </edge>
    <edge id=":1121_8" function="internal">
        <lane id=":1121_8_0" index="0" speed="13.89" length="2.41" shape="720.42,2143.97 721.82,2143.46 722.73,2143.62"/>
    </edge>
    <edge id=":1121_10" function="internal">
        <lane id=":1121_10_0" index="0" speed="13.89" length="8.88" shape="725.40,2139.93 726.50,2139.59 728.71,2141.45 730.37,2146.00"/>
    </edge>
    <edge id=":1121_11" function="internal">
        <lane id=":1121_11_0" index="0" speed="13.89" length="2.41" shape="722.73,2143.62 723.15,2144.44 723.08,2145.93"/>
    </edge>
    <edge id=":1131_0" function="internal">
        <lane id=":1131_0_0" index="0" speed="13.89" length="4.82" shape="721.64,2209.04 720.72,2210.20 719.86,2210.54 719.08,2210.07 718.36,2208.76"/>
    </edge>
    <edge id=":1132_0" function="internal">
        <lane id=":1132_0_0" index="0" speed="13.89" length="0.23" shape="724.10,2179.61 724.09,2179.68 724.08,2179.73 724.07,2179.77 724.06,2179.84"/>
    </edge>
    <edge id=":1132_1" function="internal">
        <lane id=":1132_1_0" index="0" speed="13.89" length="2.41" shape="724.10,2179.61 723.02,2180.63 722.12,2180.85"/>
    </edge>
    <edge id=":1132_4" function="internal">
        <lane id=":1132_4_0" index="0" speed="13.89" length="2.41" shape="722.12,2180.85 721.41,2180.26 720.89,2178.87"/>
    </edge>
    <edge id=":1132_2" function="internal">
        <lane id=":1132_2_0" index="0" speed="13.89" length="0.71" shape="720.78,2179.57 720.79,2179.36 720.81,2179.22 720.84,2179.07 720.89,2178.87"/>
    </edge>
    <edge id=":1132_3" function="internal">
        <lane id=":1132_3_0" index="0" speed="13.89" length="2.41" shape="720.78,2179.57 721.70,2178.40 722.56,2178.06"/>
    </edge>
    <edge id=":1132_5" function="internal">
        <lane id=":1132_5_0" index="0" speed="13.89" length="2.41" shape="722.56,2178.06 723.34,2178.54 724.06,2179.84"/>
    </edge>
    <edge id=":1144_0" function="internal">
        <lane id=":1144_0_0" index="0" speed="8.33" length="0.28" shape="378.82,2486.99 378.68,2487.23"/>
    </edge>
    <edge id=":1144_1" function="internal">
        <lane id=":1144_1_0" index="0" speed="8.33" length="2.41" shape="378.82,2486.99 377.49,2487.65 376.57,2487.60"/>
    </edge>
    <edge id=":1144_4" function="internal">
        <lane id=":1144_4_0" index="0" speed="8.33" length="2.41" shape="376.57,2487.60 376.06,2486.83 375.96,2485.34"/>
    </edge>
    <edge id=":1144_2" function="internal">
        <lane id=":1144_2_0" index="0" speed="8.33" length="0.15" shape="375.89,2485.47 375.96,2485.34"/>
    </edge>
    <edge id=":1144_3" function="internal">
        <lane id=":1144_3_0" index="0" speed="8.33" length="2.41" shape="375.89,2485.47 377.25,2484.86 378.17,2484.96"/>
    </edge>
    <edge id=":1144_5" function="internal">
        <lane id=":1144_5_0" index="0" speed="8.33" length="2.41" shape="378.17,2484.96 378.64,2485.75 378.68,2487.23"/>
    </edge>
    <edge id=":1145_0" function="internal">
        <lane id=":1145_0_0" index="0" speed="8.33" length="1.97" shape="399.63,2502.19 399.13,2502.33 398.75,2502.60 398.47,2502.97 398.31,2503.47"/>
    </edge>
    <edge id=":1145_1" function="internal">
        <lane id=":1145_1_0" index="0" speed="8.33" length="4.82" shape="399.63,2502.19 398.28,2501.57 397.74,2500.82 398.01,2499.94 399.11,2498.93"/>
    </edge>
    <edge id=":1145_2" function="internal">
        <lane id=":1145_2_0" index="0" speed="8.33" length="6.03" shape="395.07,2502.84 395.57,2501.34 396.40,2500.18 397.58,2499.38 399.11,2498.93"/>
    </edge>
    <edge id=":1145_3" function="internal">
        <lane id=":1145_3_0" index="0" speed="8.33" length="4.82" shape="395.07,2502.84 396.11,2501.78 397.00,2501.53 397.73,2502.10 398.31,2503.47"/>
    </edge>
    <edge id=":1158_0" function="internal">
        <lane id=":1158_0_0" index="0" speed="8.33" length="12.26" shape="446.18,2625.31 444.26,2623.37 441.80,2621.98 438.78,2621.16 435.21,2620.90"/>
    </edge>
    <edge id=":1158_1" function="internal">
        <lane id=":1158_1_0" index="0" speed="8.33" length="14.76" shape="446.18,2625.31 436.92,2613.81"/>
    </edge>
    <edge id=":1158_2" function="internal">
        <lane id=":1158_2_0" index="0" speed="8.33" length="12.61" shape="446.18,2625.31 444.42,2622.07 444.40,2619.45 446.09,2617.45 449.51,2616.08"/>
    </edge>
    <edge id=":1158_3" function="internal">
        <lane id=":1158_3_0" index="0" speed="8.33" length="4.82" shape="446.18,2625.31 446.11,2623.82 446.53,2623.00 447.44,2622.84 448.83,2623.35"/>
    </edge>
    <edge id=":1158_4" function="internal">
        <lane id=":1158_4_0" index="0" speed="8.33" length="5.56" shape="450.31,2619.28 448.80,2619.89 448.05,2620.77 448.06,2621.92 448.83,2623.35"/>
    </edge>
    <edge id=":1158_5" function="internal">
        <lane id=":1158_5_0" index="0" speed="8.33" length="15.22" shape="450.31,2619.28 446.60,2620.04 442.81,2620.53 438.99,2620.81 435.21,2620.90"/>
    </edge>
    <edge id=":1158_6" function="internal">
        <lane id=":1158_6_0" index="0" speed="8.33" length="15.26" shape="450.31,2619.28 446.79,2619.61 443.38,2618.80 440.09,2616.87 436.92,2613.81"/>
    </edge>
    <edge id=":1158_7" function="internal">
        <lane id=":1158_7_0" index="0" speed="8.33" length="4.82" shape="450.31,2619.28 448.91,2618.78 448.31,2618.08 448.51,2617.18 449.51,2616.08"/>
    </edge>
    <edge id=":1158_8" function="internal">
        <lane id=":1158_8_0" index="0" speed="8.33" length="11.61" shape="439.42,2611.66 441.89,2614.07 444.40,2615.62 446.94,2616.29 449.51,2616.08"/>
    </edge>
    <edge id=":1158_9" function="internal">
        <lane id=":1158_9_0" index="0" speed="8.33" length="15.01" shape="439.42,2611.66 448.83,2623.35"/>
    </edge>
    <edge id=":1158_10" function="internal">
        <lane id=":1158_10_0" index="0" speed="8.33" length="15.46" shape="439.42,2611.66 442.12,2615.68 442.32,2618.56 440.01,2620.30 435.21,2620.90"/>
    </edge>
    <edge id=":1158_11" function="internal">
        <lane id=":1158_11_0" index="0" speed="8.33" length="4.82" shape="439.42,2611.66 439.60,2613.14 439.24,2613.99 438.35,2614.21 436.92,2613.81"/>
    </edge>
    <edge id=":1158_12" function="internal">
        <lane id=":1158_12_0" index="0" speed="8.33" length="6.34" shape="435.19,2617.60 437.16,2617.35 438.10,2616.64 438.02,2615.46 436.92,2613.81"/>
    </edge>
    <edge id=":1158_13" function="internal">
        <lane id=":1158_13_0" index="0" speed="8.33" length="14.44" shape="435.19,2617.60 438.85,2617.52 442.41,2617.28 445.93,2616.82 449.51,2616.08"/>
    </edge>
    <edge id=":1158_14" function="internal">
        <lane id=":1158_14_0" index="0" speed="8.33" length="15.37" shape="435.19,2617.60 439.56,2617.94 443.29,2619.02 446.38,2620.82 448.83,2623.35"/>
    </edge>
    <edge id=":1158_15" function="internal">
        <lane id=":1158_15_0" index="0" speed="8.33" length="4.82" shape="435.19,2617.60 436.43,2618.42 436.85,2619.24 436.44,2620.07 435.21,2620.90"/>
    </edge>
    <edge id=":1159_0" function="internal">
        <lane id=":1159_0_0" index="0" speed="8.33" length="6.59" shape="544.83,2602.80 543.97,2601.86 542.67,2601.30 540.95,2601.12 538.79,2601.32"/>
    </edge>
    <edge id=":1159_1" function="internal">
        <lane id=":1159_1_0" index="0" speed="8.33" length="9.78" shape="544.83,2602.80 540.22,2594.18"/>
    </edge>
    <edge id=":1159_2" function="internal">
        <lane id=":1159_2_0" index="0" speed="8.33" length="4.82" shape="544.83,2602.80 544.93,2601.32 545.44,2600.55 546.36,2600.49 547.69,2601.15"/>
    </edge>
    <edge id=":1159_3" function="internal">
        <lane id=":1159_3_0" index="0" speed="8.33" length="9.60" shape="543.16,2592.68 547.69,2601.15"/>
    </edge>
    <edge id=":1159_4" function="internal">
        <lane id=":1159_4_0" index="0" speed="8.33" length="12.05" shape="543.16,2592.68 544.29,2595.96 543.93,2598.50 542.10,2600.28 538.79,2601.32"/>
    </edge>
    <edge id=":1159_5" function="internal">
        <lane id=":1159_5_0" index="0" speed="8.33" length="4.82" shape="543.16,2592.68 542.99,2594.16 542.44,2594.90 541.52,2594.91 540.22,2594.18"/>
    </edge>
    <edge id=":1159_6" function="internal">
        <lane id=":1159_6_0" index="0" speed="8.33" length="5.42" shape="538.26,2598.06 539.74,2597.60 540.57,2596.79 540.73,2595.65 540.22,2594.18"/>
    </edge>
    <edge id=":1159_7" function="internal">
        <lane id=":1159_7_0" index="0" speed="8.33" length="10.58" shape="538.26,2598.06 541.47,2597.83 544.11,2598.26 546.19,2599.37 547.69,2601.15"/>
    </edge>
    <edge id=":1159_8" function="internal">
        <lane id=":1159_8_0" index="0" speed="8.33" length="4.82" shape="538.26,2598.06 539.61,2598.68 540.15,2599.42 539.88,2600.31 538.79,2601.32"/>
    </edge>
    <edge id=":1161_0" function="internal">
        <lane id=":1161_0_0" index="0" speed="8.33" length="9.61" shape="404.66,2552.42 395.05,2552.32"/>
    </edge>
    <edge id=":1161_1" function="internal">
        <lane id=":1161_1_0" index="0" speed="8.33" length="10.43" shape="404.66,2552.42 402.07,2551.99 400.10,2550.74 398.75,2548.66 398.03,2545.76"/>
    </edge>
    <edge id=":1161_2" function="internal">
        <lane id=":1161_2_0" index="0" speed="8.33" length="4.82" shape="404.66,2552.42 403.43,2551.59 403.02,2550.76 403.44,2549.94 404.68,2549.12"/>
    </edge>
    <edge id=":1161_3" function="internal">
        <lane id=":1161_3_0" index="0" speed="8.33" length="5.59" shape="401.31,2545.35 401.69,2547.00 402.38,2548.17 403.38,2548.88 404.68,2549.12"/>
    </edge>
    <edge id=":1161_4" function="internal">
        <lane id=":1161_4_0" index="0" speed="8.33" length="11.05" shape="401.31,2545.35 401.24,2548.44 400.18,2550.63 398.12,2551.93 395.05,2552.32"/>
    </edge>
    <edge id=":1161_5" function="internal">
        <lane id=":1161_5_0" index="0" speed="8.33" length="4.82" shape="401.31,2545.35 400.64,2546.68 399.87,2547.19 399.00,2546.89 398.03,2545.76"/>
    </edge>
    <edge id=":1161_6" function="internal">
        <lane id=":1161_6_0" index="0" speed="8.33" length="5.17" shape="395.10,2549.02 396.54,2548.84 397.50,2548.23 398.00,2547.20 398.03,2545.76"/>
    </edge>
    <edge id=":1161_7" function="internal">
        <lane id=":1161_7_0" index="0" speed="8.33" length="9.58" shape="395.10,2549.02 404.68,2549.12"/>
    </edge>
    <edge id=":1161_8" function="internal">
        <lane id=":1161_8_0" index="0" speed="8.33" length="4.82" shape="395.10,2549.02 396.33,2549.86 396.73,2550.70 396.30,2551.51 395.05,2552.32"/>
    </edge>
    <edge id=":1162_0" function="internal">
        <lane id=":1162_0_0" index="0" speed="8.33" length="5.17" shape="536.41,2553.24 535.05,2553.38 534.05,2553.95 533.40,2554.95 533.12,2556.38"/>
    </edge>
    <edge id=":1162_1" function="internal">
        <lane id=":1162_1_0" index="0" speed="8.33" length="9.58" shape="536.41,2553.24 526.83,2552.98"/>
    </edge>
    <edge id=":1162_2" function="internal">
        <lane id=":1162_2_0" index="0" speed="8.33" length="10.42" shape="536.41,2553.24 533.67,2552.70 531.68,2551.40 530.44,2549.34 529.95,2546.53"/>
    </edge>
    <edge id=":1162_3" function="internal">
        <lane id=":1162_3_0" index="0" speed="8.33" length="4.82" shape="536.41,2553.24 535.21,2552.35 534.84,2551.51 535.30,2550.71 536.58,2549.95"/>
    </edge>
    <edge id=":1162_4" function="internal">
        <lane id=":1162_4_0" index="0" speed="8.33" length="5.43" shape="533.25,2546.41 533.51,2547.89 534.14,2548.98 535.17,2549.66 536.58,2549.95"/>
    </edge>
    <edge id=":1162_5" function="internal">
        <lane id=":1162_5_0" index="0" speed="8.33" length="9.98" shape="533.25,2546.41 533.35,2549.37 533.37,2551.40 533.30,2553.42 533.12,2556.38"/>
    </edge>
    <edge id=":1162_6" function="internal">
        <lane id=":1162_6_0" index="0" speed="8.33" length="10.57" shape="533.25,2546.41 532.94,2549.29 531.77,2551.35 529.73,2552.58 526.83,2552.98"/>
    </edge>
    <edge id=":1162_7" function="internal">
        <lane id=":1162_7_0" index="0" speed="8.33" length="4.82" shape="533.25,2546.41 532.47,2547.68 531.66,2548.12 530.82,2547.73 529.95,2546.53"/>
    </edge>
    <edge id=":1162_8" function="internal">
        <lane id=":1162_8_0" index="0" speed="8.33" length="5.09" shape="526.85,2549.68 528.25,2549.49 529.24,2548.90 529.80,2547.91 529.95,2546.53"/>
    </edge>
    <edge id=":1162_9" function="internal">
        <lane id=":1162_9_0" index="0" speed="8.33" length="9.73" shape="526.85,2549.68 536.58,2549.95"/>
    </edge>
    <edge id=":1162_10" function="internal">
        <lane id=":1162_10_0" index="0" speed="8.33" length="10.61" shape="526.85,2549.68 529.75,2550.11 531.76,2551.37 532.89,2553.46 533.12,2556.38"/>
    </edge>
    <edge id=":1162_11" function="internal">
        <lane id=":1162_11_0" index="0" speed="8.33" length="4.82" shape="526.85,2549.68 528.08,2550.51 528.49,2551.33 528.07,2552.16 526.83,2552.98"/>
    </edge>
    <edge id=":1162_12" function="internal">
        <lane id=":1162_12_0" index="0" speed="8.33" length="5.07" shape="529.83,2556.18 529.72,2554.78 529.18,2553.79 528.22,2553.18 526.83,2552.98"/>
    </edge>
    <edge id=":1162_13" function="internal">
        <lane id=":1162_13_0" index="0" speed="8.33" length="9.66" shape="529.83,2556.18 530.00,2553.32 530.07,2551.36 530.05,2549.39 529.95,2546.53"/>
    </edge>
    <edge id=":1162_14" function="internal">
        <lane id=":1162_14_0" index="0" speed="8.33" length="10.45" shape="529.83,2556.18 530.40,2553.33 531.72,2551.34 533.78,2550.21 536.58,2549.95"/>
    </edge>
    <edge id=":1162_15" function="internal">
        <lane id=":1162_15_0" index="0" speed="8.33" length="4.82" shape="529.83,2556.18 530.73,2555.00 531.58,2554.63 532.38,2555.10 533.12,2556.38"/>
    </edge>
    <edge id=":1163_0" function="internal">
        <lane id=":1163_0_0" index="0" speed="8.33" length="10.20" shape="389.05,2558.20 387.23,2555.73 385.97,2553.83 384.40,2552.55 381.65,2551.90"/>
    </edge>
    <edge id=":1163_1" function="internal">