<?xml version="1.0" encoding="UTF-8"?>

<routes xmlns:xsi="http://www.w3.org/2001/XMLSchema-instance" xsi:noNamespaceSchemaLocation="http://sumo.dlr.de/xsd/routes_file.xsd">
    <vType id="type_1" maxSpeed="30.00"/>
    <vType id="type_2" maxSpeed="40.00"/>
    <vType id="type_3" maxSpeed="50.00"/>
    <vType id="type_4" maxSpeed="60.00"/>
    <vehicle id="0" type="type_1" depart="0.00">
        <route edges="2815#1 -2815#1 -2815#0 -2809#0 -2870#6 -2870#5 -2870#4 -2870#3 -2870#2 -2870#1 -2870#0 -2795#2 -2795#1 -2795#0 -2910 -2883 -2722 -2946#2 -2946#1 -2946#0 -2846#13 -2846#12 2742#0 2742#1 2742#2 2985#0 -2985#0"/>
    </vehicle>
    <vehicle id="1" type="type_1" depart="1.00">
        <route edges="2700#5 -2904 2857#2 2664#5 -2795#0 -2910 -2883 -2722 -2946#2 2946#2"/>
    </vehicle>
    <vehicle id="2" type="type_1" depart="2.00">
        <route edges="2883 -2883 -2722 -2946#2 -2946#1 -2946#0 -2846#13 -2846#12 -2846#11 -2846#10 -2846#8 -2846#7 -2846#6 2695#1 2695#2 2830 2879 -2939#5 -2939#4 gneE2 -2939#2 -2939#1 -2939#0 -2935#1 -2935#0 gneE0 -2855#4 -2855#3 -2855#2 -2855#1 -2855#0"/>
    </vehicle>
    <vehicle id="3" type="type_1" depart="3.00">
        <route edges="-2684#1 -2684#0 -2946#2 -2946#1 -2946#0 -2846#13 -2846#12 -2846#11 -2846#10 -2846#8 -2846#7 -2846#6 -2846#5 -2846#4 -2846#3 -2884#0 -2841#2 -2841#1 -2841#0 -2759#1 -2759#0 -2923 -2691#6 2691#6"/>
    </vehicle>
    <vehicle id="4" type="type_1" depart="4.00">
        <route edges="-2793#1 -2793#0 2849 -2846#3 -2846#2 -2846#1 -2846#0 -3040#1 -3040#0 2641#0 2641#1 2641#2"/>
    </vehicle>
    <vehicle id="5" type="type_1" depart="5.00">
        <route edges="2747#1 2747#2 2747#3 -2870#5 -2870#4 -2870#3 -2870#2 -2870#1 -2870#0 -2795#2 -2795#1 -2795#0 -2910 -2883 -2722 -2946#2 -2946#1 -2946#0 -2846#13 -2846#12 -2846#11 -2846#10 2773#1 2773#2 2773#3 -3013#1 2822 2847#5"/>
    </vehicle>
    <vehicle id="6" type="type_1" depart="6.00">
        <route edges="-2712#0 -2846#13 -2846#12 -2846#11 -2846#10 2773#1 2773#2"/>
    </vehicle>
    <vehicle id="7" type="type_1" depart="7.00">
        <route edges="2855#2 2855#3 2855#4 gneE1 2935#0 2935#1 2939#0 2939#1 2939#2 gneE3 2939#4 2939#5 -2879 -2830 -2695#2 -2695#1 2846#6 2846#7 2846#8 2846#10 2846#11 2846#12 2846#13 2946#0 2946#1 2946#2 2722 2883 2910 2795#0 -2664#5 -2857#2"/>
    </vehicle>
    <vehicle id="8" type="type_1" depart="8.00">
        <route edges="2997#0 -2799#4 2676"/>
    </vehicle>
    <vehicle id="9" type="type_1" depart="9.00">
        <route edges="2732#2 2732#3 2732#4 2894#0 2894#1 2894#2 2913#1 2913#2 -2743#3 -2743#2 -2743#1 -2743#0 -2706#4 -2706#3 -2706#2 -2706#1 -2706#0 -2967#4 -2967#3 -2967#2 -2967#1 -2967#0 2795#0 2795#1 2795#2 -3004#1 -3004#0 3004#0"/>
    </vehicle>
    <vehicle id="10" type="type_1" depart="10.00">
        <route edges="-2862#1 -2862#0 2990#1 2673 -2732#8 -2732#7 -2732#6 -2732#4 -2732#3 2786#0 -3023 2837#0 2838#0"/>
    </vehicle>
    <vehicle id="11" type="type_1" depart="11.00">
        <route edges="2630#0 -2630#0 -3005 -2847#3 -2847#2 -2847#1 -2847#0 2846#7 2846#8 2846#10 2846#11 2846#12 2846#13 2946#0 2946#1 2946#2 2722 2883 2910 2967#0 -3025#1 -3025#0 -2700#3"/>
    </vehicle>
    <vehicle id="12" type="type_1" depart="12.00">
        <route edges="-2870#4 -2870#3 -2870#2 -2870#1 -2870#0 -2795#2 -2795#1 -2795#0 -2910 -2883 -2722 -2946#2 -2946#1 -2946#0 -2846#13 -2846#12 -2846#11 -2846#10 -2846#8 -2846#7 -2846#6 2695#1 2695#2 2830 2879 -2939#5 -2939#4 gneE2 -2939#2 -2939#1 -2939#0 -2935#1 -2935#0 gneE0 -2855#4 -2777#2 2622"/>
    </vehicle>
    <vehicle id="13" type="type_1" depart="13.00">
        <route edges="2664#3 2664#4 2664#5 -2795#0 -2910 -2883 -2722 -2946#2 -2946#1 -2946#0 -2846#13 -2846#12 -2846#11 -2846#10 2773#1 2773#2 -2926#3 -2926#2 -3039#1 -3039#0 3039#0"/>
    </vehicle>
    <vehicle id="14" type="type_1" depart="14.00">
        <route edges="-2846#7 2846#7 2846#8 2846#10 2846#11 2846#12 2846#13 2846#14 2840 2706#0 2706#1 2634#0 -2634#0"/>
    </vehicle>
    <vehicle id="15" type="type_1" depart="15.00">
        <route edges="-2711#1 2711#1 2690#4 2690#5 2759#0 2759#1 2855#0 2855#1 2855#2 2855#3 2855#4 gneE1 2935#0 2935#1 2939#0 2939#1 2939#2 gneE3 2939#4 2939#5 -2879 -2830 -2695#2 -2695#1 2846#6 2846#7 2846#8 2846#10 2846#11 2742#0 2742#1 2899 -2926#0 2926#0"/>
    </vehicle>
    <vehicle id="16" type="type_1" depart="16.00">
        <route edges="2712#3 2797#0 2797#1 2797#2 -2695#1 -2846#5 -2846#4 -2846#3 -2846#2 -2846#1 -2846#0 -3040#1 -3040#0 2641#0 2641#1 -2806#1 -2623 -2624#1 -2624#0 -2733#1 3035 2702#0 2961 2794"/>
    </vehicle>
    <vehicle id="17" type="type_1" depart="17.00">
        <route edges="2785#0 -2785#0 2732#8 -2631#4 -2631#3 -2960#6 -2960#5 -2960#4 -2960#3 -2960#2 -2960#1 -2960#0 -2691#6 -2691#5 -2691#4 -2691#3 2917#0 -2937"/>
    </vehicle>
    <vehicle id="18" type="type_1" depart="18.00">
        <route edges="2862#2 -2862#2 -2862#1 -2862#0 2990#1 2673 -2732#8 2785#0 2785#1 2785#2 2766"/>
    </vehicle>
    <vehicle id="19" type="type_1" depart="19.00">
        <route edges="2700#5 -2904 2857#2 2664#5 -2795#0 -2910 -2883 -2722 -2946#2 -2946#1 -2946#0 -2846#13 -2846#12 -2846#11 -2846#10 2773#1 2773#2 -2926#3 -2926#2 -3039#1 -2934#0 2763#0"/>
    </vehicle>
    <vehicle id="20" type="type_1" depart="20.00">
        <route edges="2690#5 2759#0 2759#1 2855#0 2855#1 2855#2 2855#3 -2777#2 -2777#1 -2777#0 2631#0 2631#1 2631#2 2631#3 -2631#3"/>
    </vehicle>
    <vehicle id="21" type="type_1" depart="21.00">
        <route edges="-2741#2 -2741#1 -2741#0 -2732#8 2785#0 2785#1 2785#2 2766 2851#0 2851#1 -2743#0 -2706#4 -2706#3 -2706#2 -2706#1 -2706#0 -2967#4 -2967#3 -2967#2 -2967#1 -2967#0 2795#0 -2664#5 -2664#4 -2664#3 2664#3"/>
    </vehicle>
    <vehicle id="22" type="type_1" depart="22.00">
        <route edges="3040#0 -3040#0 2641#0 2641#1 -2806#1 -2623 -2624#1 -2624#0 2690#0 2690#1 2690#2 2690#3 2690#4 2690#5 2759#0 2759#1 2855#0 2855#1 2855#2 2855#3 2855#4 gneE1 2935#0 2935#1 2939#0 2939#1 2939#2 gneE3 2939#4 2939#5 -2879 -2830 -2695#2 -2695#1 2846#6 2846#7 2846#8 2846#10 2846#11 2846#12 2846#13 2946#0 2946#1 2946#2 2722 2883 2910"/>
    </vehicle>
    <vehicle id="23" type="type_1" depart="23.00">
        <route edges="-2931#1 2931#1 -2759#0 -2690#5 -2690#4 -2690#3 -2690#2 -2690#1 -2690#0 2624#0 2932#0 2799#0 2997#0 2997#1"/>
    </vehicle>
    <vehicle id="24" type="type_1" depart="24.00">
        <route edges="-2664#2 2664#2 2664#3 2664#4 2664#5 -2795#0 2967#0 2967#1 2967#2 2967#3 2967#4 2706#0 2706#1 2706#2 2706#3 2706#4 2743#0 -2851#1 -2851#0 -2766 -2785#2 -2785#1 -2785#0 2732#8 2741#0 2741#1 -2990#2"/>
    </vehicle>
    <vehicle id="25" type="type_1" depart="25.00">
        <route edges="-2960#2 2960#2 2960#3 2960#4 2960#5 2960#6 -2631#2 -2631#1 -2631#0 2777#0 -2992 -2732#0 2935#0 2935#1 2939#0 2939#1 -2944#1+2692#0"/>
    </vehicle>
    <vehicle id="26" type="type_1" depart="26.00">
        <route edges="2674#0 -2674#0 -2814#6 -2623 -2624#1 -2624#0 -2733#1"/>
    </vehicle>
    <vehicle id="27" type="type_1" depart="27.00">
        <route edges="-2883 -2722 -2946#2 -2946#1 -2946#0 -2846#13 -2846#12 2742#0 2742#1 2899 -2899"/>
    </vehicle>
    <vehicle id="28" type="type_1" depart="28.00">
        <route edges="-2704 -2870#1 -2870#0 -2795#2 -2795#1 -2795#0 -2910 -2883 -2722 -2946#2 -2946#1 -2946#0 -2846#13 -2846#12 -2846#11 -2846#10 -2846#8 -2846#7 -2846#6 -2846#5 -2846#4 -2846#3 -2846#2 -2846#1 -2846#0 -3040#1 -3040#0 2641#0 2685 2861#1"/>
    </vehicle>
    <vehicle id="29" type="type_1" depart="29.00">
        <route edges="3027#1 -3027#1 -3027#0 -3040#0 2641#0 2641#1 -2806#1 -2623 -2624#1 -2624#0 2690#0 2690#1 2690#2 2690#3 2690#4 2690#5 2759#0 2759#1 2855#0 2855#1 2855#2 2855#3 2855#4 gneE1 2935#0 2935#1 2939#0 2939#1 2939#2 gneE3 2939#4 2939#5 -2879 -2830 -2695#2 -2695#1 2846#6 2846#7 2846#8 2846#10 2846#11 2846#12 2846#13 2946#0 2946#1 2946#2 2722 2883 2910 2795#0 2795#1 2795#2 2870#0 2870#1 2870#2 2870#3 2870#4 2870#5 2870#6"/>
    </vehicle>
    <vehicle id="30" type="type_1" depart="30.00">
        <route edges="-2892#0 -2927 -2961 2702#1 -3035 2733#1 2690#0 2690#1 2690#2 2690#3 2690#4 2690#5 2759#0 2759#1 2855#0 2855#1 2855#2 2855#3 2855#4 gneE1 2935#0 2935#1 2939#0 2939#1 2939#2 gneE3 2939#4 2939#5 -2879 -2830 -2695#2 -2695#1 2846#6 2846#7 2846#8 2846#10 2846#11 2846#12 2846#13 2946#0 2946#1 2946#2 2722 2883 2910 2795#0 -2664#5 -2664#4 -2664#3 -2664#2 -2664#0"/>
    </vehicle>
    <vehicle id="31" type="type_1" depart="31.00">
        <route edges="-2914 2814#0 2814#1 2814#2 2814#3 2814#4 2814#5 -2623 -2624#1 -2624#0 2690#0 2690#1 2690#2 2690#3 2690#4 2690#5 2759#0 2759#1 2855#0 2855#1 2855#2 2855#3 2855#4 gneE1 2935#0 2935#1 2939#0 2939#1 2939#2 gneE3 2939#4 2939#5 -2879 -2830 -2695#2 -2695#1 2846#6 2846#7 2846#8 2846#10 2846#11 2846#12 2846#13 2946#0 2946#1 2946#2 2722 2883 2910 2795#0 2795#1 2795#2 -3004#1 -3004#0 2667#1"/>
    </vehicle>
    <vehicle id="32" type="type_1" depart="32.00">
        <route edges="-2815#0 -2809#0 -2870#6 -2870#5 -2870#4 -2870#3 -2870#2 -2870#1 -2870#0 -2795#2 -2795#1 -2664#5 -2857#2 -2857#1 2857#1"/>
    </vehicle>
    <vehicle id="33" type="type_1" depart="33.00">
        <route edges="-2830 -2695#2 -2695#1 2846#6 2847#0 2847#1 2847#2 2847#3 2847#4 2847#5 2847#6 2847#7 2847#9 -2847#9"/>
    </vehicle>
    <vehicle id="34" type="type_1" depart="34.00">
        <route edges="2969 -2785#1 -2785#0 -2732#7 -2732#6 2894#0"/>
    </vehicle>
    <vehicle id="35" type="type_1" depart="35.00">
        <route edges="-2707#1 2707#1 2707#2 2846#6 2846#7 2846#8 2846#10 2846#11 2846#12 2846#13 2946#0 2946#1 2946#2 2722 2883 2910 2795#0 2795#1 2795#2 2870#0 2870#1 2870#2 2870#3 2870#4 2870#5 -2747#3 2645#0 -2645#0"/>
    </vehicle>
    <vehicle id="36" type="type_1" depart="36.00">
        <route edges="-2786#1 -2786#0 -2732#2 -2732#1 2992 2777#1 2777#2 -2855#3 -2855#2 -2855#1 -2855#0 -2759#1 -2759#0 -2690#5 -2690#4 -2690#3 -2690#2 -2690#1 -2690#0 2624#0 2932#0 2799#0 2997#0 2997#1"/>
    </vehicle>
    <vehicle id="37" type="type_1" depart="37.00">
        <route edges="-2738#0 2686#3 2686#4 2686#5 -2939#5 -2939#4 gneE2 -2939#2 -2939#1 -2939#0 -2935#1 -2935#0 gneE0 -2855#4 -2855#3 -2855#2 -2855#1 -2855#0 -2759#1 -2759#0 -2923 -2691#6 -2691#5 -2691#4"/>
    </vehicle>
    <vehicle id="38" type="type_1" depart="38.00">
        <route edges="2842 2690#2 2690#3 2690#4 2690#5 2759#0 2759#1"/>
    </vehicle>
    <vehicle id="39" type="type_1" depart="39.00">
        <route edges="-2997#0 -2799#0 -2932#0 -2624#0 2690#0 2690#1 2690#2 2690#3 2690#4 2690#5 2759#0 2759#1 2855#0 2855#1 2855#2 2855#3 -2777#2 -2777#1 -2777#0"/>
    </vehicle>
    <vehicle id="40" type="type_1" depart="40.00">
        <route edges="2960#2 2960#3 2960#4 2960#5 2960#6 -2631#2 -2631#1 2631#1"/>
    </vehicle>
    <vehicle id="41" type="type_1" depart="41.00">
        <route edges="-2814#0 2814#0 2814#1 2814#2 2814#3 2814#4 2814#5 -2623 -2624#1 -2624#0 2690#0 2691#0"/>
    </vehicle>
    <vehicle id="42" type="type_1" depart="42.00">
        <route edges="2732#1 -2732#1 2992 -2777#0 2631#0 2734 -2960#5"/>
    </vehicle>
    <vehicle id="43" type="type_1" depart="43.00">
        <route edges="2846#13 2712#0"/>
    </vehicle>
    <vehicle id="44" type="type_1" depart="44.00">
        <route edges="2990#1 2673 -2732#8 -2732#7 2865#0 2865#1 2965 2894#2 2920 2686#1 2686#3 2686#4 2686#5 -2879 -2830 -2695#2 -2695#1 2846#6 2846#7 2846#8 2846#10 2846#11 -2846#11"/>
    </vehicle>
    <vehicle id="45" type="type_1" depart="45.00">
        <route edges="2809#2 -2809#2 -2809#1 -2809#0 -2870#6 -2870#5 -2870#4 -2870#3 -2870#2 -2870#1 -2870#0 -2795#2 2890#0 2890#1 2664#2 -2700#6"/>
    </vehicle>
    <vehicle id="46" type="type_1" depart="46.00">
        <route edges="2634#0 -2634#0 -2706#1 -2706#0 -2967#4 -2967#3 -2967#2 -2967#1 -2967#0 2795#0 2795#1 2795#2 2870#0 2870#1 2870#2 2870#3 2870#4 2870#5 2870#6 2809#0 2815#0 2815#1 -2815#1"/>
    </vehicle>
    <vehicle id="47" type="type_1" depart="47.00">
        <route edges="-2997#2 -2997#1 -2997#0 -2799#0 -2932#0 -2624#0 2690#0 2690#1 2690#2 2690#3 2690#4 2690#5 2759#0 2759#1 2855#0 2855#1 2855#2 2855#3 -2777#2 -2777#1 -2992 2732#1 2732#2 2732#3 2732#4 2732#6 2732#7 2785#0 2785#1 2785#2 2766 -2766"/>
    </vehicle>
    <vehicle id="48" type="type_1" depart="48.00">
        <route edges="-2793#2 -2793#1 -2793#0 2707#0 2707#1 2707#2 2846#6 2846#7 2846#8 2846#10 2846#11 2846#12 2846#13 2946#0 2946#1 2946#2 2722 2883 2910 2967#0 2967#1"/>
    </vehicle>
    <vehicle id="49" type="type_1" depart="49.00">
        <route edges="-2630#1 -2630#0 -3005 -2847#3 -2847#2 -2847#1 -2847#0 2846#7 2846#8 2846#10 2846#11 2846#12 2846#13 2946#0 2946#1"/>
    </vehicle>
    <vehicle id="50" type="type_1" depart="50.00">
        <route edges="2691#3 2711#0 2711#1 2690#4 2690#5 2759#0 2759#1 2855#0 2855#1 2855#2 2855#3 2855#4 gneE1 2935#0 2935#1 2939#0 2939#1 2939#2 gneE3 2939#4 2939#5 -2879 -2830 -2695#2 -2695#1 2846#6 2847#0 2847#1 2847#2 2847#3 2847#4 2847#5 2847#6 2847#7 2847#9 2655#0 2655#1"/>
    </vehicle>
    <vehicle id="51" type="type_1" depart="51.00">
        <route edges="-2935#0 2732#0 2732#1 2732#2 2732#3 2732#4 2732#6 2732#7 2785#0 -2785#0"/>
    </vehicle>
    <vehicle id="52" type="type_1" depart="52.00">
        <route edges="-2682#1 2925 -2855#1 -2855#0 2841#0 2841#1 2841#2 -2841#2"/>
    </vehicle>
    <vehicle id="53" type="type_1" depart="53.00">
        <route edges="-2935#0 2732#0 -2732#0 2935#0 2935#1 2939#0 2939#1 2939#2 gneE3 2939#4 2939#5 -2879 -2830 -2695#2 -2695#1 2846#6 2846#7 2846#8 2846#10 2846#11 2846#12 2846#13 2946#0 2946#1 2946#2 2722 2883 2910 2795#0 2795#1 2795#2 2870#0 2870#1 2870#2 2870#3 2870#4 2870#5 2870#6 2809#0 2815#0 2815#1"/>
    </vehicle>
    <vehicle id="54" type="type_1" depart="54.00">
        <route edges="-2846#5 2846#5 2846#6 2846#7 2846#8 2846#10 2846#11 2846#12 2846#13 2946#0 2946#1 2946#2 2722 2883 2910 2795#0 2795#1 2795#2 2870#0 2870#1 2870#2 2870#3 2810"/>
    </vehicle>
    <vehicle id="55" type="type_1" depart="55.00">
        <route edges="2857#0 -2857#0 3025#1 2967#1 2967#2 2967#3 2967#4 2706#0 2706#1 2706#2 2706#3 2706#4 2743#0 -2851#1 -2851#0 -2766 -2785#2 -2785#1 -2785#0 2732#8 -2631#4 -2631#3 -2960#6 2960#6"/>
    </vehicle>
    <vehicle id="56" type="type_1" depart="56.00">
        <route edges="-2857#0 3025#1 -2967#0 2795#0 2795#1 2795#2 2870#0 2870#1 2870#2 2870#3 2870#4 2870#5 2870#6 2809#0 2815#0"/>
    </vehicle>
    <vehicle id="57" type="type_1" depart="57.00">
        <route edges="gneE3 2939#4 -2939#4 gneE2 -2939#2 -2939#1 -2939#0 -2935#1 -2935#0 2732#0 2992 -2777#0 2631#0 2631#1 2631#2 -2960#6"/>
    </vehicle>
    <vehicle id="58" type="type_1" depart="58.00">
        <route edges="2905#3 -2786#1 -2786#0 2732#3 2732#4 2894#0 2894#1 2894#2 2913#1 2913#2 -2743#3 -2743#2 -2743#1 -2743#0 -2706#4 -2706#3 -2706#2 -2706#1 -2706#0 -2967#4 -2967#3 -2967#2 -2967#1 -2967#0 2795#0 2795#1 2795#2 2870#0 2870#1 2870#2 2870#3 2870#4 2870#5 2870#6 2809#0 2809#1 2962#0 -2962#0"/>
    </vehicle>
    <vehicle id="59" type="type_1" depart="59.00">
        <route edges="2631#0 2631#1 2631#2 2631#3 2631#4 -2732#8 2785#0 2785#1 2785#2 2766 2851#0 2851#1 -2743#0 -2706#4 2804#0"/>
    </vehicle>
    <vehicle id="60" type="type_1" depart="60.00">
        <route edges="-2847#4 -2847#3 -2847#2 -2847#1 -2847#0 2846#7 2846#8 2846#10 2846#11 2846#12 2846#13 2946#0 2946#1 2946#2 2722 2883 2910 2795#0 2795#1 2795#2 -3004#1 -3004#0"/>
    </vehicle>
    <vehicle id="61" type="type_1" depart="61.00">
        <route edges="-2838#0 -2837#0 3023 -2786#0 2732#3 2732#4 2894#0 2894#1 2894#2 2913#1 2913#2 -2743#3 -2743#2 -2743#1 -2743#0 -2706#4 -2706#3 -2706#2 -2706#1 -2706#0 -2967#4 -2967#3 -2967#2 -2967#1 -2967#0 2795#0 2795#1 2795#2 2870#0 2870#1 2870#2 2870#3 2870#4 2870#5 2870#6 2698#0 2698#1 2698#2 -2698#2"/>
    </vehicle>
    <vehicle id="62" type="type_1" depart="62.00">
        <route edges="-3040#0 2641#0 2641#1 -2806#1 -2623 -2624#1 -2624#0 2690#0 2690#1 2690#2 2690#3 2690#4 2690#5 2759#0 2759#1 2855#0 2855#1 2855#2 2855#3 2855#4 gneE1 2935#0 2935#1 2939#0 2939#1 2939#2 gneE3 2939#4 2939#5 -2879 -2830 -2695#2 -2695#1 2846#6 2846#7 2846#8 2846#10 2846#11 2846#12 2846#13 2946#0 2946#1 2946#2 2722 2883 2910 2795#0 2795#1 2890#0 2890#1"/>
    </vehicle>
    <vehicle id="63" type="type_1" depart="63.00">
        <route edges="-2773#3 -2773#2 -2773#1 -2846#8 -2846#7 -2846#6 -2846#5 -2846#4 -2846#3 -2846#2 -2846#1 -2846#0 -3040#1 -3040#0 2641#0 2685 2861#1 -2980#3"/>
    </vehicle>
    <vehicle id="64" type="type_1" depart="64.00">
        <route edges="2797#1 2797#2 -2695#1 -2846#5 -2846#4 -2846#3 -2884#0 -2841#2 -2841#1 -2841#0 -2759#1 -2759#0 -2690#5 -2690#4 -2711#1 2711#1"/>
    </vehicle>
    <vehicle id="65" type="type_1" depart="65.00">
        <route edges="2747#2 2747#3 -2870#5 -2870#4 -2870#3 -2870#2 -2870#1 -2870#0 -2795#2 -2795#1 -2795#0 -2910 -2883 -2722 -2946#2 -2946#1 -2946#0 -2846#13 -2846#12 2742#0 2742#1"/>
    </vehicle>
    <vehicle id="66" type="type_1" depart="66.00">
        <route edges="-2690#5 -2690#4 -2711#1 2711#1"/>
    </vehicle>
    <vehicle id="67" type="type_1" depart="67.00">
        <route edges="2773#3 -2773#3 -2773#2 -2773#1 -2846#8 -2846#7 -2846#6 -2707#2 -2707#1 -2707#0 2793#0 -2793#0"/>
    </vehicle>
    <vehicle id="68" type="type_1" depart="68.00">
        <route edges="-2691#1 -2691#0 2690#1 2690#2 2690#3 2690#4 2690#5 2759#0 2759#1 2855#0 2855#1 2855#2 2855#3 2855#4 gneE1 2935#0 2935#1 2939#0 2939#1 2939#2 gneE3 2939#4 2939#5 -2879 -2830 -2695#2 -2695#1 2846#6 2847#0 2847#1 2847#2 2847#3 2847#4 2847#5 2847#6 2847#7 -2826 -2655#0"/>
    </vehicle>
    <vehicle id="69" type="type_1" depart="69.00">
        <route edges="2935#1 2939#0 2939#1 2939#2 gneE3 2939#4 -2939#4 gneE2"/>
    </vehicle>
    <vehicle id="70" type="type_1" depart="70.00">
        <route edges="-2892#0 -2927 -2961 2702#1 -3035 2733#1 2690#0 2690#1 2690#2 2690#3 2690#4 2690#5 2759#0 2759#1 2855#0 2855#1 2855#2 2855#3 -2777#2 -2777#1 -2777#0 2631#0 2631#1 2631#2 2631#3 2631#4 2850#1"/>
    </vehicle>
    <vehicle id="71" type="type_1" depart="71.00">
        <route edges="2865#4 2865#5 -2743#2 -2743#1 -2743#0 -2706#4 -2706#3 -2706#2 -2706#1 -2706#0 -2967#4 -2967#3 -2967#2 -2967#1 -3025#1 2857#0 -2697 2700#5"/>
    </vehicle>
    <vehicle id="72" type="type_1" depart="72.00">
        <route edges="2768 -2768 2706#3 2706#4 2743#0 2743#1 2743#2 -2743#2"/>
    </vehicle>
    <vehicle id="73" type="type_1" depart="73.00">
        <route edges="2967#3 2967#4 -2840 -2846#14 -2846#13 -2846#12 -2846#11 -2846#10 -2846#8 -2846#7 -2846#6 2695#1 2695#2 2830 2879 -2939#5 2939#5"/>
    </vehicle>
    <vehicle id="74" type="type_1" depart="74.00">
        <route edges="2930#0 -2930#0 2988#1 2690#0 2690#1 2690#2 2690#3 2690#4 2690#5 2759#0 2759#1 2855#0 2855#1 2855#2 2855#3 2855#4 gneE1 2935#0 2935#1 2939#0 2939#1 2939#2 gneE3 2939#4 2939#5 -2879 -2830 -2695#2 -2695#1 -2846#5 -2846#4"/>
    </vehicle>
    <vehicle id="75" type="type_1" depart="75.00">
        <route edges="2910 2795#0 2795#1 2795#2 2870#0 2870#1 2870#2 2870#3 2870#4 2870#5 -2747#3 -2747#2 -2747#1"/>
    </vehicle>
    <vehicle id="76" type="type_1" depart="76.00">
        <route edges="2925 2855#2 2855#3 2855#4 gneE1 2935#0 2935#1 2939#0 2939#1 2939#2 gneE3 2939#4 2939#5 -2879 -2830 -2695#2 -2695#1 2846#6 2847#0 2847#1 2847#2 2847#3 2847#4 2847#5 -2847#5"/>
    </vehicle>
    <vehicle id="77" type="type_1" depart="77.00">
        <route edges="-2793#1 -2793#0 2849 -2846#3 -2846#2 -2846#1 -2846#0 -3040#1 -3040#0 2641#0 2641#1 -2806#1 -2814#5 -2814#4 -2814#3 -2814#2 2912"/>
    </vehicle>
    <vehicle id="78" type="type_1" depart="78.00">
        <route edges="-2826 2826 -2847#7 -2847#6 -2847#5 -2847#4 -2847#3 -2847#2 -2847#1 -2847#0 -2846#6 2695#1 2695#2 2830 2879 -2939#5 -2939#4 gneE2 -2939#2 2939#2"/>
    </vehicle>
    <vehicle id="79" type="type_1" depart="79.00">
        <route edges="-2969 2865#5 2743#3 3002#0 3002#1 2686#0 2686#1 2686#3 2686#4 2686#5 -2879 -2830 -2695#2 -2695#1 -2707#2 -2707#1"/>
    </vehicle>
    <vehicle id="80" type="type_1" depart="80.00">
        <route edges="2653 -2698#2 -2698#1 -2698#0 -2870#6 -2870#5 -2870#4 -2870#3 -2870#2 -2870#1 -2870#0 -2795#2 -2795#1 -2795#0 -2910 -2883 -2722 -2946#2 -2946#1 -2946#0 -2846#13 -2846#12 -2846#11 -2846#10 -2846#8 -2846#7 -2846#6 -2846#5 -2846#4 -2846#3 -2884#0 -2841#2 -2949"/>
    </vehicle>
    <vehicle id="81" type="type_1" depart="81.00">
        <route edges="2790 2932#2 2842 2690#2 2690#3 2690#4 2690#5 2759#0 2759#1 2855#0 2855#1 2855#2 2855#3 2855#4 gneE1 2935#0 2935#1 2939#0 2939#1 2939#2 gneE3 2939#4 2939#5 -2879 -2830 -2695#2 -2695#1 2846#6 2846#7 2846#8 2846#10 2846#11 2846#12 2846#13 2946#0 2946#1 2946#2 2722 2883 2910 2795#0 2795#1 2795#2 -3004#1 -3004#0 2667#1"/>
    </vehicle>
    <vehicle id="82" type="type_1" depart="82.00">
        <route edges="2914 -2980#2 -2980#1 -2980#0 2814#3 2814#4 2814#5 -2623 -2624#1 -2624#0 2690#0 2690#1 2690#2 2690#3 2690#4 2690#5 2759#0 2759#1 2855#0 2855#1 2855#2 2855#3 2855#4 gneE1 2935#0 2935#1 2939#0 2939#1 2939#2 gneE3 2939#4 2939#5 -2879 -2830 -2695#2 -2695#1 2846#6 2846#7 2846#8 2846#10 2846#11 2846#12 2846#13 2946#0 2946#1 -2946#1"/>
    </vehicle>
    <vehicle id="83" type="type_1" depart="83.00">
        <route edges="2926#1 2926#2 2926#3 -2773#2 -2773#1 -2846#8 -2846#7 -2846#6 2695#1 2695#2 2830 2879 -2939#5 -2939#4 gneE2 -2939#2 -2939#1 -2939#0 -2935#1 -2935#0 2732#0 2992 -2777#0 2631#0 2631#1 2631#2 2631#3"/>
    </vehicle>
    <vehicle id="84" type="type_1" depart="84.00">
        <route edges="2777#2 -2855#3 -2855#2 -2855#1 -2855#0 -2759#1 -2759#0 -2690#5 -2690#4 -2711#1 -2711#0 -2691#3 -2691#2"/>
    </vehicle>
    <vehicle id="85" type="type_1" depart="85.00">
        <route edges="-2910 -2883 -2722 -2946#2 -2946#1 -2946#0 -2846#13 -2846#12 -2846#11 -2846#10 -2846#8 2846#8"/>
    </vehicle>
    <vehicle id="86" type="type_1" depart="86.00">
        <route edges="2765 -2980#1 -2980#0 2814#3 2814#4 2814#5 -2623 -2624#1 -2624#0 2690#0 2690#1 2690#2 2690#3 2690#4 2690#5 2759#0 2759#1 2855#0 2855#1 2855#2 2855#3 2855#4 gneE1 2935#0 2935#1 2939#0 2939#1 2939#2 gneE3 2939#4 2939#5 -2879 -2830 -2695#2 -2695#1 2846#6 2846#7 2846#8 2846#10 2846#11 2846#12 2846#13 2946#0 2946#1 2946#2 2722 2883 2910 2795#0 2795#1 2795#2 2870#0 2870#1 2870#2 2870#3 2870#4 2870#5 -2747#3 2645#0 -2645#0"/>
    </vehicle>
    <vehicle id="87" type="type_1" depart="87.00">
        <route edges="-2934#0 2666 -2899 -2742#1 -2742#0 2846#12 2846#13 2846#14 2840 2706#0 2706#1 2706#2 2706#3 2706#4 2743#0 -2851#1 -2851#0 -2766 -2785#2 -2785#1 2780"/>
    </vehicle>
    <vehicle id="88" type="type_1" depart="88.00">
        <route edges="-2961 2702#1 -3035 2733#1 2624#0 2624#1 2623 2806#1 2641#2 3040#0 3040#1 2846#0 2846#1"/>
    </vehicle>
    <vehicle id="89" type="type_1" depart="89.00">
        <route edges="-2985#0 -2742#2 -2742#1 -2742#0 -2846#11 -2846#10 -2846#8 -2846#7 -2846#6 2695#1 2695#2 2830 2879 -2939#5 -2939#4 gneE2 -2939#2 -2939#1 -2939#0 -2935#1 -2935#0 gneE0 -2855#4 -2855#3 -2855#2 -2925"/>
    </vehicle>
    <vehicle id="90" type="type_1" depart="90.00">
        <route edges="2986 2707#2 2695#1 2695#2 2830 2879 -2939#5 -2939#4 gneE2 -2939#2 -2939#1 -2939#0 -2935#1 -2935#0 2732#0 2992 -2777#0 2631#0 2734 -2960#5 3036#0 3036#1 3036#2 3036#3 3036#4 3036#5 -2886"/>
    </vehicle>
    <vehicle id="91" type="type_1" depart="91.00">
        <route edges="-2700#2 2953 2967#3 2967#4 2706#0 2706#1 2706#2 2706#3 2706#4 2743#0 -2851#1 -2851#0 -2766 -2785#2 -2785#1 -2785#0 -2732#7 -2732#6 -2732#4 -2732#3 2786#0 -3023"/>
    </vehicle>
    <vehicle id="92" type="type_1" depart="92.00">
        <route edges="-2743#1 -2851#1 -2851#0 -2766 -2785#2 -2785#1 -2785#0 -2732#7 2865#0 2865#1 2965 2894#2 2920"/>
    </vehicle>
    <vehicle id="93" type="type_1" depart="93.00">
        <route edges="2711#0 2711#1 2690#4 2690#5 2759#0 2759#1 2855#0 2855#1 2855#2 2855#3 2855#4 gneE1 2935#0 2935#1 2939#0 2939#1 2939#2 gneE3 2939#4 2939#5 -2879 -2830 -2695#2 -2695#1 2846#6 2846#7 2846#8 2846#10 2846#11 2846#12 2846#13 2946#0 2946#1 2946#2 2722 2883 2910 2795#0 -2664#5 -2857#2 -2857#1 -2697 -2700#4"/>
    </vehicle>
    <vehicle id="94" type="type_1" depart="94.00">
        <route edges="-2797#1 2797#1 2797#2 -2695#1 -2846#5 -2846#4 -2846#3 -2846#2 -2846#1 -2846#0 -3040#1 -3040#0 2641#0 2641#1 -2806#1 2806#1"/>
    </vehicle>
    <vehicle id="95" type="type_1" depart="95.00">
        <route edges="-2921 -2741#0 -2631#4 -2631#3 -2631#2 -2631#1 -2631#0 2777#0 2777#1 2777#2 -2855#3 -2855#2 -2855#1 2787#0 2739"/>
    </vehicle>
    <vehicle id="96" type="type_1" depart="96.00">
        <route edges="-2935#1 -2935#0 gneE0 -2855#4 -2855#3 -2855#2 -2855#1 -2855#0 -2759#1 -2759#0 -2690#5 -2690#4 -2690#3 -2690#2 -2690#1 -2690#0 2624#0 2932#0 2799#0"/>
    </vehicle>
    <vehicle id="97" type="type_1" depart="97.00">
        <route edges="2847#3 -2847#3 -2847#2 -2847#1 -2847#0 -2846#6 2695#1 2695#2 2830 2879 -2939#5 -2939#4 gneE2 -2939#2 -2939#1 -2939#0 -2935#1 -2935#0 2732#0 2732#1 2732#2 2732#3 2732#4 2732#6 2732#7 2732#8 2741#0 2921"/>
    </vehicle>
    <vehicle id="98" type="type_1" depart="98.00">
        <route edges="2797#0 2797#1 2797#2 2695#2 2830 2879 -2939#5 -2939#4 gneE2 -2939#2 -2939#1 -2939#0 -2935#1 -2935#0 2732#0 2732#1 2732#2 2732#3 2732#4 2732#6 2732#7 2732#8 -2673"/>
    </vehicle>
    <vehicle id="99" type="type_1" depart="99.00">
        <route edges="-2847#3 -2847#2 -2847#1 -2847#0 -2846#6 2695#1 2695#2 2830 2879 -2939#5 -2939#4 gneE2 -2939#2 -2939#1 -2939#0 -2935#1 -2935#0 gneE0 -2855#4 -2855#3 -2855#2 -2855#1 -2855#0"/>
    </vehicle>
    <vehicle id="100" type="type_1" depart="100.00">
        <route edges="2733#1 2690#0 2690#1 2690#2 2690#3 2690#4 2690#5 2759#0 2759#1 2855#0 2855#1 2855#2 2855#3 -2777#2 -2777#1 -2777#0 2631#0 2631#1 2631#2 2631#3 2990#0 2990#1 2990#2 -2741#1"/>
    </vehicle>
    <vehicle id="101" type="type_2" depart="101.00">
        <route edges="-2700#3 2636 2967#2 2967#3 2967#4 -2840 -2846#14 -2846#13 -2846#12 -2846#11 -2846#10 -2846#8 -2846#7 -2846#6 -2846#5 -2846#4 -2846#3 -2846#2 -2846#1 -2846#0 -3040#1 -3040#0 2641#0 2641#1 -2806#1 -2814#5 -2814#4 -2814#3 2980#0"/>
    </vehicle>
    <vehicle id="102" type="type_2" depart="102.00">
        <route edges="-2634#0 -2706#1 -2706#0 -2967#4 -2967#3 -2967#2 -2967#1 -2967#0 2795#0 2795#1 2795#2 2870#0 2870#1 2870#2 2870#3 2870#4 2870#5 2870#6 2809#0 2815#0 2815#1 2747#0"/>
    </vehicle>
    <vehicle id="103" type="type_2" depart="103.00">
        <route edges="2697 2857#1 2857#2 2664#5 -2795#0 -2910 -2883 -2722 -2946#2 -2946#1 -2946#0 -2846#13 -2846#12 -2846#11 -2846#10 -2846#8 -2846#7 -2846#6 2695#1 2695#2 2830 2879 -2939#5 -2939#4 gneE2 -2939#2 -2939#1 -2939#0 -2935#1 -2935#0 gneE0 -2855#4 -2855#3 -2855#2 -2855#1 2855#1"/>
    </vehicle>
    <vehicle id="104" type="type_2" depart="104.00">
        <route edges="-2797#0 2797#0 2797#1 2797#2"/>
    </vehicle>
    <vehicle id="105" type="type_2" depart="105.00">
        <route edges="2894#0 2894#1 2894#2 2913#1 2913#2 -2743#3 -2743#2 -2743#1 -2743#0 -2706#4 -2706#3 -2706#2 -2706#1 -2706#0 -2967#4 -2967#3 -2967#2 -2967#1 -2967#0 2795#0 -2664#5 2664#5"/>
    </vehicle>
    <vehicle id="106" type="type_2" depart="106.00">
        <route edges="-2932#3 2842 2690#2 2690#3 2690#4 2690#5 2759#0 2759#1 2855#0 2855#1 2855#2 2855#3 2855#4 gneE1 2935#0 2935#1 2939#0 2939#1 2939#2 gneE3 2939#4 2939#5 -2879 -2830 -2695#2 -2695#1 2846#6 2846#7 -2846#7"/>
    </vehicle>
    <vehicle id="107" type="type_2" depart="107.00">
        <route edges="-2631#0 2777#0 2777#1 2777#2 -2855#3 -2855#2 -2855#1 -2855#0 -2759#1 -2759#0 -2690#5 -2690#4 -2711#1 -2711#0 2691#4"/>
    </vehicle>
    <vehicle id="108" type="type_2" depart="108.00">
        <route edges="2960#5 -2960#5 -2960#4 -2960#3 -2960#2 -2960#1 -2960#0 2923 -2690#5 -2690#4 -2690#3 -2690#2 -2690#1 -2690#0 2624#0 2932#0 2799#0 2997#0 -2799#4"/>
    </vehicle>
    <vehicle id="109" type="type_2" depart="109.00">
        <route edges="2850#1 -2850#1 -2732#8 -2732#7 2865#0 2865#1 2965 2894#2 2920 2686#1 2686#3 2686#4 2686#5 -2879 -2830 -2695#2 -2695#1 2846#6 2846#7 2846#8 2846#10 2846#11 2742#0 2742#1 2899 2926#1"/>
    </vehicle>
    <vehicle id="110" type="type_2" depart="110.00">
        <route edges="-2892#0 -2927 -2961 2702#1 -3035 2733#1 2690#0 2690#1 2690#2 2690#3 2690#4 2690#5 2759#0 2759#1 2855#0 2855#1 2855#2 2855#3 2855#4 gneE1 2935#0 2935#1 2939#0 2939#1 2939#2 gneE3 2939#4 2939#5 -2879 -2830 -2695#2 -2695#1 2846#6 2847#0 2847#1 2847#2 3013#0"/>
    </vehicle>
    <vehicle id="111" type="type_2" depart="111.00">
        <route edges="-2704 -2870#1 -2870#0 -3004#1 -3004#0 2667#1 2667#2"/>
    </vehicle>
    <vehicle id="112" type="type_2" depart="112.00">
        <route edges="2967#3 2967#4 -2840 -2846#14 -2846#13 -2846#12 -2846#11 -2846#10 -2846#8 -2846#7 -2846#6 -2846#5 -2846#4 -2846#3 -2884#0 -2841#2 -2841#1 -2841#0 -2759#1 -2931#1"/>
    </vehicle>
    <vehicle id="113" type="type_2" depart="113.00">
        <route edges="-2706#3 2706#3 2706#4 2743#0 -2851#1 -2851#0 -2766 -2785#2 -2785#1 -2785#0 -2732#7 -2732#6 -2732#4 -2732#3 2786#0 2786#1 -2905#3 -2905#2 -2838#1"/>
    </vehicle>
    <vehicle id="114" type="type_2" depart="114.00">
        <route edges="2686#5 -2939#5 -2939#4 gneE2 -2939#2 -2939#1 -2939#0 -2935#1 -2935#0 2732#0 2732#1 2732#2 2732#3 2732#4 2894#0 2894#1 2894#2 2913#1 2913#2 3002#0"/>
    </vehicle>
    <vehicle id="115" type="type_2" depart="115.00">
        <route edges="2946#1 2946#2 2722 2883 2910 2795#0 -2664#5 -2664#4 -2664#3 -2700#6"/>
    </vehicle>
    <vehicle id="116" type="type_2" depart="116.00">
        <route edges="2934#1 2934#3 -2773#3 -2773#2 -2773#1 -2846#8 -2846#7 -2846#6 -2846#5 -2846#4 -2846#3 -2846#2 -2846#1 -2846#0 -3040#1 -3040#0 2641#0 2641#1 -2806#1 -2814#5 -2814#4 -2814#3 -2814#2 2912"/>
    </vehicle>