<?xml version="1.0" encoding="UTF-8"?>

<!-- generated on seg 04 nov 2019 14:09:27 -03 by Netedit Version 0.32.0
<?xml version="1.0" encoding="UTF-8"?>

<configuration xmlns:xsi="http://www.w3.org/2001/XMLSchema-instance" xsi:noNamespaceSchemaLocation="http://sumo.dlr.de/xsd/netconvertConfiguration.xsd">

    <input>
        <sumo-net-file value="usp.net.xml"/>
    </input>

    <output>
        <output-file value="usp.net.xml"/>
    </output>

    <processing>
        <no-turnarounds value="true"/>
        <offset.disable-normalization value="true"/>
        <lefthand value="false"/>
        <junctions.corner-detail value="0"/>
        <rectangular-lane-cut value="false"/>
        <walkingareas value="false"/>
    </processing>

</configuration>
-->

<net version="0.27" xmlns:xsi="http://www.w3.org/2001/XMLSchema-instance" xsi:noNamespaceSchemaLocation="http://sumo.dlr.de/xsd/net_file.xsd">

    <location netOffset="-321465.48,2619737.45" convBoundary="134.09,0.00,5114.39,14410.18" origBoundary="-46.754546,-23.679140,-46.690896,-23.525283" projParameter="+proj=utm +zone=23 +ellps=WGS84 +datum=WGS84 +units=m +no_defs"/>

    <type id="highway.bridleway" priority="1" numLanes="1" speed="2.78" allow="pedestrian" oneway="1" width="2.00"/>
    <type id="highway.bus_guideway" priority="1" numLanes="1" speed="8.33" allow="bus" oneway="1"/>
    <type id="highway.cycleway" priority="1" numLanes="1" speed="5.56" allow="bicycle" oneway="0" width="1.00"/>
    <type id="highway.footway" priority="1" numLanes="1" speed="2.78" allow="pedestrian" oneway="1" width="2.00"/>
    <type id="highway.ford" priority="1" numLanes="1" speed="2.78" allow="army" oneway="0"/>
    <type id="highway.living_street" priority="3" numLanes="1" speed="2.78" disallow="tram rail_urban rail rail_electric ship" oneway="0"/>
    <type id="highway.motorway" priority="13" numLanes="2" speed="44.44" allow="private emergency authority army vip passenger hov taxi bus coach delivery truck trailer motorcycle evehicle custom1 custom2" oneway="1"/>
    <type id="highway.motorway_link" priority="12" numLanes="1" speed="22.22" allow="private emergency authority army vip passenger hov taxi bus coach delivery truck trailer motorcycle evehicle custom1 custom2" oneway="1"/>
    <type id="highway.path" priority="1" numLanes="1" speed="2.78" allow="bicycle pedestrian" oneway="1" width="2.00"/>
    <type id="highway.pedestrian" priority="1" numLanes="1" speed="2.78" allow="pedestrian" oneway="1" width="2.00"/>
    <type id="highway.primary" priority="9" numLanes="2" speed="27.78" disallow="tram rail_urban rail rail_electric ship" oneway="0"/>
    <type id="highway.primary_link" priority="8" numLanes="1" speed="22.22" disallow="tram rail_urban rail rail_electric ship" oneway="0"/>
    <type id="highway.raceway" priority="14" numLanes="2" speed="83.33" allow="vip" oneway="0"/>
    <type id="highway.residential" priority="4" numLanes="1" speed="13.89" disallow="tram rail_urban rail rail_electric ship" oneway="0"/>
    <type id="highway.secondary" priority="7" numLanes="2" speed="27.78" disallow="tram rail_urban rail rail_electric ship" oneway="0"/>
    <type id="highway.secondary_link" priority="6" numLanes="1" speed="22.22" disallow="tram rail_urban rail rail_electric ship" oneway="0"/>
    <type id="highway.service" priority="2" numLanes="1" speed="5.56" allow="delivery bicycle pedestrian" oneway="0"/>
    <type id="highway.services" priority="1" numLanes="1" speed="8.33" disallow="tram rail_urban rail rail_electric ship" oneway="0"/>
    <type id="highway.stairs" priority="1" numLanes="1" speed="1.39" allow="pedestrian" oneway="1" width="2.00"/>
    <type id="highway.step" priority="1" numLanes="1" speed="1.39" allow="pedestrian" oneway="1" width="2.00"/>
    <type id="highway.steps" priority="1" numLanes="1" speed="1.39" allow="pedestrian" oneway="1" width="2.00"/>
    <type id="highway.tertiary" priority="6" numLanes="1" speed="22.22" disallow="tram rail_urban rail rail_electric ship" oneway="0"/>
    <type id="highway.tertiary_link" priority="5" numLanes="1" speed="22.22" disallow="tram rail_urban rail rail_electric ship" oneway="0"/>
    <type id="highway.track" priority="1" numLanes="1" speed="5.56" disallow="tram rail_urban rail rail_electric ship" oneway="0"/>
    <type id="highway.trunk" priority="11" numLanes="2" speed="27.78" disallow="tram rail_urban rail rail_electric bicycle pedestrian ship" oneway="0"/>
    <type id="highway.trunk_link" priority="10" numLanes="1" speed="22.22" disallow="tram rail_urban rail rail_electric bicycle pedestrian ship" oneway="0"/>
    <type id="highway.unclassified" priority="5" numLanes="1" speed="13.89" disallow="tram rail_urban rail rail_electric ship" oneway="0"/>
    <type id="highway.unsurfaced" priority="1" numLanes="1" speed="8.33" disallow="tram rail_urban rail rail_electric ship" oneway="0"/>
    <type id="railway.light_rail" priority="15" numLanes="1" speed="27.78" allow="rail_urban" oneway="1"/>
    <type id="railway.preserved" priority="15" numLanes="1" speed="27.78" allow="rail" oneway="1"/>
    <type id="railway.rail" priority="15" numLanes="1" speed="83.33" allow="rail rail_electric" oneway="1"/>
    <type id="railway.subway" priority="15" numLanes="1" speed="27.78" allow="rail_urban" oneway="1"/>
    <type id="railway.tram" priority="15" numLanes="1" speed="13.89" allow="tram" oneway="1"/>

    <edge id=":1376717403_0" function="internal">
        <lane id=":1376717403_0_0" index="0" disallow="tram rail_urban rail rail_electric ship" speed="13.89" length="4.82" shape="1918.65,12129.27 1917.28,12129.85 1916.37,12129.73 1915.91,12128.94 1915.91,12127.45"/>
    </edge>
    <edge id=":1376717404_0" function="internal">
        <lane id=":1376717404_0_0" index="0" disallow="tram rail_urban rail rail_electric ship" speed="13.89" length="10.01" shape="1984.75,12105.87 1983.77,12104.92 1981.93,12103.96 1979.22,12103.00 1975.65,12102.04"/>
    </edge>
    <edge id=":1376717404_1" function="internal">
        <lane id=":1376717404_1_0" index="0" disallow="tram rail_urban rail rail_electric ship" speed="13.89" length="11.87" shape="1984.75,12105.87 1978.92,12095.54"/>
    </edge>
    <edge id=":1376717404_2" function="internal">
        <lane id=":1376717404_2_0" index="0" disallow="tram rail_urban rail rail_electric ship" speed="13.89" length="2.41" shape="1984.75,12105.87 1984.85,12104.39 1985.36,12103.62"/>
    </edge>
    <edge id=":1376717404_9" function="internal">
        <lane id=":1376717404_9_0" index="0" speed="13.89" length="2.41" shape="1985.36,12103.62 1986.28,12103.57 1987.61,12104.23"/>
    </edge>
    <edge id=":1376717404_3" function="internal">
        <lane id=":1376717404_3_0" index="0" disallow="tram rail_urban rail rail_electric ship" speed="13.89" length="11.84" shape="1981.79,12093.92 1987.61,12104.23"/>
    </edge>
    <edge id=":1376717404_4" function="internal">
        <lane id=":1376717404_4_0" index="0" disallow="tram rail_urban rail rail_electric ship" speed="13.89" length="6.92" shape="1981.79,12093.92 1983.75,12098.59 1983.51,12100.43"/>
    </edge>
    <edge id=":1376717404_5" function="internal">
        <lane id=":1376717404_5_0" index="0" disallow="tram rail_urban rail rail_electric ship" speed="13.89" length="2.41" shape="1981.79,12093.92 1981.68,12095.40 1981.16,12096.17"/>
    </edge>
    <edge id=":1376717404_10" function="internal">
        <lane id=":1376717404_10_0" index="0" speed="13.89" length="9.08" shape="1983.51,12100.43 1983.38,12101.50 1980.68,12102.65 1975.65,12102.04"/>
    </edge>
    <edge id=":1376717404_11" function="internal">
        <lane id=":1376717404_11_0" index="0" speed="13.89" length="2.41" shape="1981.16,12096.17 1980.24,12096.21 1978.92,12095.54"/>
    </edge>
    <edge id=":1376717404_6" function="internal">
        <lane id=":1376717404_6_0" index="0" disallow="tram rail_urban rail rail_electric ship" speed="13.89" length="6.49" shape="1976.42,12098.83 1978.46,12099.08 1979.56,12098.61 1979.71,12097.43 1978.92,12095.54"/>
    </edge>
    <edge id=":1376717404_7" function="internal">
        <lane id=":1376717404_7_0" index="0" disallow="tram rail_urban rail rail_electric ship" speed="13.89" length="12.66" shape="1976.42,12098.83 1980.65,12100.02 1983.92,12101.31 1986.24,12102.72 1987.61,12104.23"/>
    </edge>
    <edge id=":1376717404_8" function="internal">
        <lane id=":1376717404_8_0" index="0" disallow="tram rail_urban rail rail_electric ship" speed="13.89" length="4.82" shape="1976.42,12098.83 1977.43,12099.92 1977.64,12100.82 1977.05,12101.53 1975.65,12102.04"/>
    </edge>
    <edge id=":1376717410_0" function="internal">
        <lane id=":1376717410_0_0" index="0" disallow="tram rail_urban rail rail_electric ship" speed="11.11" length="9.64" shape="1828.33,12215.85 1837.95,12215.55"/>
        <lane id=":1376717410_0_1" index="1" disallow="tram rail_urban rail rail_electric ship" speed="11.11" length="9.64" shape="1828.38,12219.14 1838.04,12218.85"/>
    </edge>
    <edge id=":1376717410_2" function="internal">
        <lane id=":1376717410_2_0" index="0" disallow="tram rail_urban rail rail_electric ship" speed="16.66" length="9.93" shape="1828.38,12219.14 1830.76,12219.38 1832.98,12220.17 1835.05,12221.52 1836.97,12223.43"/>
    </edge>
    <edge id=":1376717419_0" function="internal">
        <lane id=":1376717419_0_0" index="0" disallow="tram rail_urban rail rail_electric ship" speed="13.89" length="0.31" shape="2183.96,11948.48 2183.66,11948.38"/>
    </edge>
    <edge id=":1376717419_1" function="internal">
        <lane id=":1376717419_1_0" index="0" disallow="tram rail_urban rail rail_electric ship" speed="13.89" length="2.41" shape="2183.96,11948.48 2183.05,11947.31 2182.92,11946.39"/>
    </edge>
    <edge id=":1376717419_4" function="internal">
        <lane id=":1376717419_4_0" index="0" speed="13.89" length="2.41" shape="2182.92,11946.39 2183.57,11945.74 2185.01,11945.35"/>
    </edge>
    <edge id=":1376717419_2" function="internal">
        <lane id=":1376717419_2_0" index="0" disallow="tram rail_urban rail rail_electric ship" speed="13.89" length="0.29" shape="2184.74,11945.26 2185.01,11945.35"/>
    </edge>
    <edge id=":1376717419_3" function="internal">
        <lane id=":1376717419_3_0" index="0" disallow="tram rail_urban rail rail_electric ship" speed="13.89" length="2.41" shape="2184.74,11945.26 2185.64,11946.44 2185.76,11947.36"/>
    </edge>
    <edge id=":1376717419_5" function="internal">
        <lane id=":1376717419_5_0" index="0" speed="13.89" length="2.41" shape="2185.76,11947.36 2185.10,11948.00 2183.66,11948.38"/>
    </edge>
    <edge id=":1494111007_0" function="internal">
        <lane id=":1494111007_0_0" index="0" disallow="tram rail_urban rail rail_electric ship" speed="11.11" length="0.30" shape="2755.50,12729.84 2755.24,12729.68"/>
        <lane id=":1494111007_0_1" index="1" disallow="tram rail_urban rail rail_electric ship" speed="11.11" length="0.30" shape="2757.20,12727.01 2756.95,12726.86"/>
    </edge>
    <edge id=":1494111012_0" function="internal">
        <lane id=":1494111012_0_0" index="0" disallow="tram rail_urban rail rail_electric ship" speed="12.50" length="0.27" shape="2794.43,12753.31 2794.08,12753.11"/>
        <lane id=":1494111012_0_1" index="1" disallow="tram rail_urban rail rail_electric ship" speed="12.50" length="0.27" shape="2795.90,12750.35 2795.79,12750.29"/>
    </edge>
    <edge id=":1584972419_0" function="internal">
        <lane id=":1584972419_0_0" index="0" disallow="tram rail_urban rail rail_electric ship" speed="13.89" length="5.03" shape="787.73,11782.56 786.53,11781.87 785.41,11781.74 784.36,11782.17 783.39,11783.15"/>
    </edge>
    <edge id=":1584972419_1" function="internal">
        <lane id=":1584972419_1_0" index="0" disallow="tram rail_urban rail rail_electric ship" speed="13.89" length="7.87" shape="787.73,11782.56 785.62,11780.67 784.38,11778.98 784.00,11777.48 784.49,11776.17"/>
    </edge>
    <edge id=":1584972419_2" function="internal">
        <lane id=":1584972419_2_0" index="0" disallow="tram rail_urban rail rail_electric ship" speed="13.89" length="6.22" shape="787.12,11778.17 783.39,11783.15"/>
    </edge>
    <edge id=":1584972419_3" function="internal">
        <lane id=":1584972419_3_0" index="0" disallow="tram rail_urban rail rail_electric ship" speed="13.89" length="2.41" shape="787.12,11778.17 785.71,11778.66 784.81,11778.49"/>
    </edge>
    <edge id=":1584972419_6" function="internal">
        <lane id=":1584972419_6_0" index="0" speed="13.89" length="2.41" shape="784.81,11778.49 784.40,11777.66 784.49,11776.17"/>
    </edge>
    <edge id=":1584972419_4" function="internal">
        <lane id=":1584972419_4_0" index="0" disallow="tram rail_urban rail rail_electric ship" speed="13.89" length="6.27" shape="780.73,11781.19 784.49,11776.17"/>
    </edge>
    <edge id=":1584972419_5" function="internal">
        <lane id=":1584972419_5_0" index="0" disallow="tram rail_urban rail rail_electric ship" speed="13.89" length="2.41" shape="780.73,11781.19 782.13,11780.69 783.04,11780.85"/>
    </edge>
    <edge id=":1584972419_7" function="internal">
        <lane id=":1584972419_7_0" index="0" speed="13.89" length="2.41" shape="783.04,11780.85 783.46,11781.67 783.39,11783.15"/>
    </edge>
    <edge id=":1584972456_0" function="internal">
        <lane id=":1584972456_0_0" index="0" disallow="tram rail_urban rail rail_electric ship" speed="18.05" length="9.00" shape="960.42,11913.86 953.27,11908.40"/>
    </edge>
    <edge id=":1584972456_1" function="internal">
        <lane id=":1584972456_1_0" index="0" disallow="tram rail_urban rail rail_electric ship" speed="13.89" length="5.03" shape="953.87,11912.76 954.54,11911.55 954.67,11910.42 954.24,11909.37 953.27,11908.40"/>
    </edge>
    <edge id=":1584972456_2" function="internal">
        <lane id=":1584972456_2_0" index="0" disallow="tram rail_urban rail rail_electric ship" speed="12.50" length="6.27" shape="953.87,11912.76 957.74,11907.77"/>
        <lane id=":1584972456_2_1" index="1" disallow="tram rail_urban rail rail_electric ship" speed="12.50" length="6.27" shape="956.50,11914.75 960.32,11909.83"/>
    </edge>
    <edge id=":1598956292_0" function="internal">
        <lane id=":1598956292_0_0" index="0" disallow="tram rail_urban rail rail_electric ship" speed="13.89" length="8.58" shape="877.21,12022.22 875.38,12020.48 874.40,12019.01 873.42,12017.53 871.60,12015.78"/>
    </edge>
    <edge id=":1598956292_1" function="internal">
        <lane id=":1598956292_1_0" index="0" disallow="tram rail_urban rail rail_electric ship" speed="13.89" length="4.82" shape="877.21,12022.22 876.73,12020.81 876.91,12019.90 877.74,12019.50 879.22,12019.60"/>
    </edge>
    <edge id=":1598956292_2" function="internal">
        <lane id=":1598956292_2_0" index="0" disallow="tram rail_urban rail rail_electric ship" speed="12.50" length="6.47" shape="871.17,12021.53 872.28,12019.74 872.73,12018.18 872.50,12016.86 871.60,12015.78"/>
    </edge>
    <edge id=":1598956292_3" function="internal">
        <lane id=":1598956292_3_0" index="0" disallow="tram rail_urban rail rail_electric ship" speed="11.11" length="9.50" shape="871.17,12021.53 876.90,12013.96"/>
        <lane id=":1598956292_3_1" index="1" disallow="tram rail_urban rail rail_electric ship" speed="11.11" length="9.50" shape="873.80,12023.52 879.53,12015.95"/>
    </edge>
    <edge id=":1598956293_0" function="internal">
        <lane id=":1598956293_0_0" index="0" disallow="tram rail_urban rail rail_electric ship" speed="13.89" length="5.01" shape="915.92,11957.70 917.11,11958.38 918.24,11958.51 919.29,11958.09 920.27,11957.13"/>
    </edge>
    <edge id=":1598956293_1" function="internal">
        <lane id=":1598956293_1_0" index="0" disallow="tram rail_urban rail rail_electric ship" speed="13.89" length="8.77" shape="915.92,11957.70 917.79,11959.48 918.80,11960.98 919.83,11962.47 921.73,11964.21"/>
    </edge>
    <edge id=":1598956293_2" function="internal">
        <lane id=":1598956293_2_0" index="0" disallow="tram rail_urban rail rail_electric ship" speed="13.89" length="4.82" shape="915.92,11957.70 916.39,11959.11 916.21,11960.02 915.38,11960.41 913.90,11960.31"/>
    </edge>
    <edge id=":1598956293_3" function="internal">
        <lane id=":1598956293_3_0" index="0" disallow="tram rail_urban rail rail_electric ship" speed="13.89" length="5.04" shape="914.50,11964.69 915.17,11963.50 915.29,11962.37 914.87,11961.30 913.90,11960.31"/>
    </edge>
    <edge id=":1598956293_4" function="internal">
        <lane id=":1598956293_4_0" index="0" disallow="tram rail_urban rail rail_electric ship" speed="13.89" length="9.52" shape="914.50,11964.69 920.27,11957.13"/>
        <lane id=":1598956293_4_1" index="1" disallow="tram rail_urban rail rail_electric ship" speed="13.89" length="9.52" shape="917.11,11966.70 922.90,11959.12"/>
    </edge>
    <edge id=":1598956294_0" function="internal">
        <lane id=":1598956294_0_0" index="0" disallow="tram rail_urban rail rail_electric ship" speed="13.89" length="9.39" shape="735.16,11948.29 727.74,11942.54"/>
    </edge>
    <edge id=":1598956294_1" function="internal">
        <lane id=":1598956294_1_0" index="0" disallow="tram rail_urban rail rail_electric ship" speed="13.89" length="7.79" shape="735.16,11948.29 733.15,11946.37 731.97,11944.66 731.61,11943.15 732.07,11941.85"/>
    </edge>
    <edge id=":1598956294_2" function="internal">
        <lane id=":1598956294_2_0" index="0" disallow="tram rail_urban rail rail_electric ship" speed="13.89" length="1.17" shape="734.74,11943.79 733.81,11944.51"/>
    </edge>
    <edge id=":1598956294_3" function="internal">
        <lane id=":1598956294_3_0" index="0" disallow="tram rail_urban rail rail_electric ship" speed="13.89" length="1.21" shape="734.74,11943.79 733.60,11944.21"/>
    </edge>
    <edge id=":1598956294_4" function="internal">
        <lane id=":1598956294_4_0" index="0" speed="13.89" length="6.65" shape="733.81,11944.51 733.62,11944.65 732.09,11944.72 730.13,11944.02 727.74,11942.54"/>
    </edge>
    <edge id=":1598956294_5" function="internal">
        <lane id=":1598956294_5_0" index="0" speed="13.89" length="3.61" shape="733.60,11944.21 733.34,11944.31 732.43,11944.15 732.01,11943.33 732.07,11941.85"/>
    </edge>
    <edge id=":1598956295_0" function="internal">
        <lane id=":1598956295_0_0" index="0" disallow="tram rail_urban rail rail_electric ship" speed="13.89" length="5.03" shape="848.06,11909.20 846.86,11908.51 845.73,11908.39 844.69,11908.82 843.72,11909.81"/>
    </edge>
    <edge id=":1598956295_1" function="internal">
        <lane id=":1598956295_1_0" index="0" disallow="tram rail_urban rail rail_electric ship" speed="13.89" length="9.54" shape="848.06,11909.20 840.44,11903.45"/>
    </edge>
    <edge id=":1598956295_2" function="internal">
        <lane id=":1598956295_2_0" index="0" disallow="tram rail_urban rail rail_electric ship" speed="13.89" length="2.41" shape="848.06,11909.20 847.59,11907.79 847.77,11906.88"/>
    </edge>
    <edge id=":1598956295_9" function="internal">
        <lane id=":1598956295_9_0" index="0" speed="13.89" length="2.41" shape="847.77,11906.88 848.60,11906.49 850.08,11906.59"/>
    </edge>
    <edge id=":1598956295_3" function="internal">
        <lane id=":1598956295_3_0" index="0" disallow="tram rail_urban rail rail_electric ship" speed="13.89" length="9.63" shape="842.39,11900.79 850.08,11906.59"/>
    </edge>
    <edge id=":1598956295_4" function="internal">
        <lane id=":1598956295_4_0" index="0" disallow="tram rail_urban rail rail_electric ship" speed="13.89" length="5.34" shape="842.39,11900.79 844.41,11902.77 845.31,11904.94 845.29,11905.10"/>
    </edge>
    <edge id=":1598956295_5" function="internal">
        <lane id=":1598956295_5_0" index="0" disallow="tram rail_urban rail rail_electric ship" speed="13.89" length="2.41" shape="842.39,11900.79 842.90,11902.19 842.75,11903.10"/>
    </edge>
    <edge id=":1598956295_10" function="internal">
        <lane id=":1598956295_10_0" index="0" speed="13.89" length="5.05" shape="845.29,11905.10 845.07,11907.28 843.72,11909.81"/>
    </edge>
    <edge id=":1598956295_11" function="internal">
        <lane id=":1598956295_11_0" index="0" speed="13.89" length="2.41" shape="842.75,11903.10 841.93,11903.52 840.44,11903.45"/>
    </edge>
    <edge id=":1598956295_6" function="internal">
        <lane id=":1598956295_6_0" index="0" disallow="tram rail_urban rail rail_electric ship" speed="13.89" length="5.07" shape="841.06,11907.85 841.73,11906.61 841.85,11905.47 841.42,11904.41 840.44,11903.45"/>
    </edge>
    <edge id=":1598956295_7" function="internal">
        <lane id=":1598956295_7_0" index="0" disallow="tram rail_urban rail rail_electric ship" speed="13.89" length="10.46" shape="841.06,11907.85 843.07,11905.80 845.25,11904.90 847.58,11905.17 850.08,11906.59"/>
    </edge>
    <edge id=":1598956295_8" function="internal">
        <lane id=":1598956295_8_0" index="0" disallow="tram rail_urban rail rail_electric ship" speed="13.89" length="4.82" shape="841.06,11907.85 842.45,11907.34 843.36,11907.50 843.78,11908.32 843.72,11909.81"/>
    </edge>
    <edge id=":1598956296_0" function="internal">
        <lane id=":1598956296_0_0" index="0" disallow="tram rail_urban rail rail_electric ship" speed="13.89" length="5.00" shape="793.26,11868.84 792.05,11868.19 790.93,11868.09 789.89,11868.52 788.93,11869.51"/>
    </edge>
    <edge id=":1598956296_1" function="internal">
        <lane id=":1598956296_1_0" index="0" disallow="tram rail_urban rail rail_electric ship" speed="13.89" length="9.44" shape="793.26,11868.84 785.74,11863.12"/>
    </edge>
    <edge id=":1598956296_2" function="internal">
        <lane id=":1598956296_2_0" index="0" disallow="tram rail_urban rail rail_electric ship" speed="13.89" length="2.41" shape="793.26,11868.84 792.75,11867.44 792.91,11866.53"/>
    </edge>
    <edge id=":1598956296_9" function="internal">
        <lane id=":1598956296_9_0" index="0" speed="13.89" length="2.41" shape="792.91,11866.53 793.73,11866.11 795.21,11866.17"/>
    </edge>
    <edge id=":1598956296_3" function="internal">
        <lane id=":1598956296_3_0" index="0" disallow="tram rail_urban rail rail_electric ship" speed="13.89" length="9.33" shape="787.79,11860.53 795.21,11866.17"/>
    </edge>
    <edge id=":1598956296_4" function="internal">
        <lane id=":1598956296_4_0" index="0" disallow="tram rail_urban rail rail_electric ship" speed="13.89" length="5.08" shape="787.79,11860.53 789.69,11862.53 790.51,11864.70"/>
    </edge>
    <edge id=":1598956296_5" function="internal">
        <lane id=":1598956296_5_0" index="0" disallow="tram rail_urban rail rail_electric ship" speed="13.89" length="2.41" shape="787.79,11860.53 788.25,11861.94 788.06,11862.84"/>
    </edge>
    <edge id=":1598956296_10" function="internal">
        <lane id=":1598956296_10_0" index="0" speed="13.89" length="5.16" shape="790.51,11864.70 790.26,11867.02 788.93,11869.51"/>
    </edge>
    <edge id=":1598956296_11" function="internal">
        <lane id=":1598956296_11_0" index="0" speed="13.89" length="2.41" shape="788.06,11862.84 787.23,11863.24 785.74,11863.12"/>
    </edge>
    <edge id=":1598956296_6" function="internal">
        <lane id=":1598956296_6_0" index="0" disallow="tram rail_urban rail rail_electric ship" speed="13.89" length="5.06" shape="786.26,11867.56 786.93,11866.32 787.07,11865.17 786.67,11864.10 785.74,11863.12"/>
    </edge>
    <edge id=":1598956296_7" function="internal">
        <lane id=":1598956296_7_0" index="0" disallow="tram rail_urban rail rail_electric ship" speed="13.89" length="10.34" shape="786.26,11867.56 788.24,11865.53 790.39,11864.62 792.71,11864.84 795.21,11866.17"/>
    </edge>
    <edge id=":1598956296_8" function="internal">
        <lane id=":1598956296_8_0" index="0" disallow="tram rail_urban rail rail_electric ship" speed="13.89" length="4.82" shape="786.26,11867.56 787.66,11867.05 788.57,11867.20 788.99,11868.02 788.93,11869.51"/>
    </edge>
    <edge id=":1598956297_0" function="internal">
        <lane id=":1598956297_0_0" index="0" disallow="tram rail_urban rail rail_electric ship" speed="18.05" length="8.91" shape="999.53,11862.12 992.45,11856.71"/>
    </edge>
    <edge id=":1598956297_1" function="internal">
        <lane id=":1598956297_1_0" index="0" disallow="tram rail_urban rail rail_electric ship" speed="22.22" length="4.82" shape="999.53,11862.12 999.06,11860.71 999.23,11859.80 1000.07,11859.40 1001.55,11859.51"/>
    </edge>
    <edge id=":1598956297_2" function="internal">
        <lane id=":1598956297_2_0" index="0" disallow="tram rail_urban rail rail_electric ship" speed="13.89" length="5.20" shape="994.44,11854.08 995.66,11854.74 996.82,11854.86 997.94,11854.42 999.00,11853.44"/>
    </edge>
    <edge id=":1598956297_3" function="internal">
        <lane id=":1598956297_3_0" index="0" disallow="tram rail_urban rail rail_electric ship" speed="18.05" length="8.94" shape="994.44,11854.08 1001.55,11859.51"/>
    </edge>
    <edge id=":1598956297_4" function="internal">
        <lane id=":1598956297_4_0" index="0" disallow="tram rail_urban rail rail_electric ship" speed="13.89" length="4.82" shape="994.44,11854.08 994.93,11855.48 994.76,11856.39 993.94,11856.80 992.45,11856.71"/>
    </edge>
    <edge id=":1598956297_5" function="internal">
        <lane id=":1598956297_5_0" index="0" disallow="tram rail_urban rail rail_electric ship" speed="12.50" length="5.09" shape="993.01,11861.15 993.69,11859.91 993.82,11858.75 993.41,11857.69 992.45,11856.71"/>
    </edge>
    <edge id=":1598956297_6" function="internal">
        <lane id=":1598956297_6_0" index="0" disallow="tram rail_urban rail rail_electric ship" speed="12.50" length="9.68" shape="993.01,11861.15 999.00,11853.44"/>
        <lane id=":1598956297_6_1" index="1" disallow="tram rail_urban rail rail_electric ship" speed="12.50" length="9.68" shape="995.67,11863.10 1001.55,11855.53"/>
    </edge>
    <edge id=":1598956298_0" function="internal">
        <lane id=":1598956298_0_0" index="0" disallow="tram rail_urban rail rail_electric ship" speed="20.84" length="5.04" shape="584.39,11842.39 583.14,11841.78 582.00,11841.71 580.97,11842.19 580.05,11843.21"/>
    </edge>
    <edge id=":1598956298_1" function="internal">
        <lane id=":1598956298_1_0" index="0" disallow="tram rail_urban rail rail_electric ship" speed="20.84" length="12.62" shape="584.39,11842.39 581.05,11839.69 579.13,11837.10 578.64,11834.61 579.58,11832.23"/>
    </edge>
    <edge id=":1598956298_2" function="internal">
        <lane id=":1598956298_2_0" index="0" disallow="tram rail_urban rail rail_electric ship" speed="13.89" length="4.82" shape="584.39,11842.39 583.83,11841.02 583.95,11840.10 584.76,11839.65 586.24,11839.66"/>
    </edge>
    <edge id=":1598956298_3" function="internal">
        <lane id=":1598956298_3_0" index="0" disallow="tram rail_urban rail rail_electric ship" speed="20.84" length="4.36" shape="584.97,11836.04 584.55,11836.97 584.63,11837.88 585.19,11838.78 586.24,11839.66"/>
    </edge>
    <edge id=":1598956298_4" function="internal">
        <lane id=":1598956298_4_0" index="0" disallow="tram rail_urban rail rail_electric ship" speed="27.78" length="8.74" shape="584.97,11836.04 580.05,11843.21"/>
        <lane id=":1598956298_4_1" index="1" disallow="tram rail_urban rail rail_electric ship" speed="27.78" length="8.74" shape="582.27,11834.14 577.31,11841.38"/>
    </edge>
    <edge id=":1598956298_6" function="internal">
        <lane id=":1598956298_6_0" index="0" disallow="tram rail_urban rail rail_electric ship" speed="27.78" length="2.41" shape="582.27,11834.14 580.89,11834.67 579.97,11834.53"/>
    </edge>
    <edge id=":1598956298_11" function="internal">
        <lane id=":1598956298_11_0" index="0" speed="27.78" length="2.41" shape="579.97,11834.53 579.54,11833.72 579.58,11832.23"/>
    </edge>
    <edge id=":1598956298_7" function="internal">
        <lane id=":1598956298_7_0" index="0" disallow="tram rail_urban rail rail_electric ship" speed="27.78" length="8.92" shape="571.82,11837.72 576.89,11830.32"/>
        <lane id=":1598956298_7_1" index="1" disallow="tram rail_urban rail rail_electric ship" speed="27.78" length="8.92" shape="574.56,11839.55 579.58,11832.23"/>
    </edge>
    <edge id=":1598956298_9" function="internal">
        <lane id=":1598956298_9_0" index="0" disallow="tram rail_urban rail rail_electric ship" speed="20.84" length="4.58" shape="574.56,11839.55 576.64,11837.54 578.28,11837.13"/>
    </edge>
    <edge id=":1598956298_10" function="internal">
        <lane id=":1598956298_10_0" index="0" disallow="tram rail_urban rail rail_electric ship" speed="27.78" length="2.41" shape="574.56,11839.55 575.94,11838.98 576.85,11839.09"/>
    </edge>
    <edge id=":1598956298_12" function="internal">
        <lane id=":1598956298_12_0" index="0" speed="20.84" length="8.60" shape="578.28,11837.13 579.28,11836.89 582.48,11837.60 586.24,11839.66"/>
    </edge>
    <edge id=":1598956298_13" function="internal">
        <lane id=":1598956298_13_0" index="0" speed="27.78" length="2.41" shape="576.85,11839.09 577.31,11839.89 577.31,11841.38"/>
    </edge>
    <edge id=":1598956299_0" function="internal">
        <lane id=":1598956299_0_0" index="0" disallow="tram rail_urban rail rail_electric ship" speed="13.89" length="5.04" shape="749.46,11834.47 748.26,11833.78 747.13,11833.64 746.09,11834.07 745.11,11835.06"/>
    </edge>
    <edge id=":1598956299_1" function="internal">
        <lane id=":1598956299_1_0" index="0" disallow="tram rail_urban rail rail_electric ship" speed="13.89" length="10.34" shape="749.46,11834.47 747.47,11832.41 746.58,11830.21 746.79,11827.89 748.09,11825.44"/>
    </edge>
    <edge id=":1598956299_2" function="internal">