<?xml version="1.0" encoding="UTF-8"?>

<!-- generated on Sat Sep 14 09:24:53 2019 by SUMO duarouter Version 0.32.0
<?xml version="1.0" encoding="UTF-8"?>

<configuration xmlns:xsi="http://www.w3.org/2001/XMLSchema-instance" xsi:noNamespaceSchemaLocation="http://sumo.dlr.de/xsd/duarouterConfiguration.xsd">

    <input>
        <net-file value="usp.net.xml"/>
        <route-files value="newTrip.trip.xml"/>
    </input>

    <output>
        <output-file value="newRoutes.rou.xml"/>
        <alternatives-output value="newRoutes.rou.alt.xml"/>
    </output>

    <processing>
        <ignore-errors value="true"/>
    </processing>

    <time>
        <begin value="0"/>
        <end value="3600"/>
    </time>

    <report>
        <no-warnings value="true"/>
        <no-step-log value="true"/>
    </report>

</configuration>
-->

<routes xmlns:xsi="http://www.w3.org/2001/XMLSchema-instance" xsi:noNamespaceSchemaLocation="http://sumo.dlr.de/xsd/routes_file.xsd">
    <vehicle id="1" depart="1.00">
        <route edges="-224370082 396356823 396356826 396357991 409840105 396357992#0 396357992#1 417844050 396559846 158967295 153489160#7 153489160#8 396330577 382973268 -153489141 396827404 291548425#3 291548425#4 291548425#5 396827403 -493155080 410115277 291548424 410115278 171279286#0 171279286#1 171279286#2 171279286#3 171279286#4 171279286#5 171279286#6 171279286#7 171279286#8 147280468 402575991 158604481#0 158604481#1 158604481#2 158604481#3 158604481#4 158604481#5 158604481#6 158604481#7 402575993 147377361#0 147377361#1 182700085 171279287 158621100#0 158621100#1 158621100#2 158621100#3 158621100#4 158621100#5 158621100#6 158621100#7 158621100#8 432589841#0 432589841#1 432589841#2 432589841#3"/>
    </vehicle>
    <vehicle id="4" depart="4.00">
        <route edges="158604481#7 402575993 147377361#0 147377361#1 182700085 171279287 171279300 402575995 158604480#0 158604480#1 158604480#2 76840171#0 76840171#1 76840171#2 419356122 419356119#0 419356119#1 151660786 152760337#1 152760337#2 152760337#3 152760337#4 34239670#0 34239670#1 34239670#2 296580404 34239676#1 34239676#2 34239674 182700091 296580396#0 296580396#1 296580396#2 296579360 296579361 296586012 171279275#0 171279275#1 147278388#1 171279289#0 171279289#1 158607004#0 158607004#1 158607004#2 158607004#3 158607004#4 158607004#5 158607004#6 171279294#0 171279294#1 171279298 147278379 158607002#0"/>
    </vehicle>
    <vehicle id="5" depart="5.00">
        <route edges="158604480#7 158604480#8 158604480#9 158604480#10 158604480#11 158604480#12 158604480#13 158604480#14 395683886 158604481#1 158604481#2 158604481#3 158604481#4 158604481#5 158604481#6 158604481#7 402575993 147377361#0 147377361#1 182700085 171279287 158621100#0 158621100#1 158621100#2 158621100#3 158621100#4 158621100#5 158621100#6 158621100#7 158621100#8 432589841#0 432589841#1 432589841#2 432589841#3 432589841#4 432589841#5 432589841#6 432589842 61132757 393439570#0 393439570#1 296586079#0 296586079#1 296586079#2 296586079#3 296586079#4 171279307#0 171279307#1 171279307#2 171279307#3 171279307#4 171279307#5 171279307#6 171279307#7 171279307#8 171279307#9 171279307#10 402188088 61132766#1 402178719"/>
    </vehicle>
    <vehicle id="6" depart="6.00">
        <route edges="-296586084#0 -296586083#2 -296586083#1 -296586083#0 -296586082 -151615196#1 -151615196#0 393411369 432589841#4 432589841#5 158621105 158621099#14 158621099#15 158621099#16 158621099#17 158621099#18 158621099#19 158621099#20 158621099#21 158621099#22 402575995 158604480#0 158604480#1 158604480#2 158604480#3 158604480#4 158604480#5 158604480#6 158604480#7 158604480#8 158604480#9 158604480#10 158604480#11 158604480#12 158604480#13 158604480#14 158604480#15 34239668 402575999 402575997 171279301 171279265 182700083 158607008#0 158607008#1 158607008#2 158607008#3 158607008#4 158607008#5 158607008#6 158607008#7"/>
    </vehicle>
    <vehicle id="12" depart="12.00">
        <route edges="296585974#1 472255624 679304328 -679304328 -158783877#3 -158783877#2 -158783877#1 -158783877#0 158783881 158621100#8 432589841#0 393421557 158621099#18 158621099#19 158621099#20 158621099#21 158621099#22 402575995 158604480#0 158604480#1 158604480#2 158604480#3 158604480#4 158604480#5 158604480#6 158604480#7 158604480#8 158604480#9 158604480#10 158604480#11 158604480#12 158604480#13 158604480#14 158604480#15 34239668 402575999 402575997 171279301 171279265 182700083 158607008#0 158607008#1 158607008#2 158607008#3 158607008#4 158607008#5 158607008#6 158607008#7 158607008#8 158607008#9 158607008#10 158607008#11 410114946 158608079 182700075 153489134 493155080 396827402 291548425#1 396827401 153489141 382973267 153489160#1 153489160#2 153489160#3 153489160#4 153489160#5 24063552 409891756 296584716 417844050 396359123 397089922 494505258 146627236 -146627238#1 -146627238#0 -147921592#3 -147921592#2"/>
    </vehicle>
    <vehicle id="13" depart="13.00">
        <route edges="-79211446#0 108052761#2 108052761#3 108052761#4 108052761#5 108052761#6 108052761#7 108052761#8 -474144561 474144564 -474144564"/>
    </vehicle>
    <vehicle id="16" depart="16.00">
        <route edges="396392017 396396359#0 396396359#1 419730189#0 419730189#1 419730189#2 153489143 463643366#0 463643366#1 463643366#2 495777432 153489144 291548425#4 291548425#5 396827403 -493155080 410115277 291548424 410115278 171279286#0 171279286#1 171279286#2 171279286#3 171279286#4 171279286#5 171279286#6 171279286#7 171279286#8 147280468 402575991 158604481#0 158604481#1 158604481#2 158604481#3 158604481#4 158604481#5 158604481#6 158604481#7 402575993 147377361#0 147377361#1 182700085 171279287 158621100#0 158621100#1 158621100#2 158621100#3 158621100#4 158621100#5 158621100#6 158621100#7 158621100#8 432589841#0 393421557 158621099#18 158621099#19 158621099#20 158621099#21"/>
    </vehicle>
    <vehicle id="19" depart="19.00">
        <route edges="-296586084#0 -296586083#2 -296586083#1 -296586083#0 -296586082 -151615196#1 -151615196#0 393411369 432589841#4 432589841#5 432589841#6 432589842 296586087#0 296586087#1 296586087#2 296586087#3 296586087#4 296586087#5 296586087#6 296586087#7 296586087#8 296586087#9 296586087#10 296586087#11 171279302 154205432 182700087#0 182700087#1 154205420 -147278371 171279277 171279289#0 171279289#1 171279310 182700093 147278373 -296586012 -296579361 -296579360 -296580396#2 -296580396#1 -296580396#0 -182700091 296580400#0"/>
    </vehicle>
    <vehicle id="22" depart="22.00">
        <route edges="263536610#2 263536610#3 263536610#4 387225369 396357991 409840105 396357992#0 396357992#1 417844050 396559846 158967295 153489160#7 153489160#8 396330577 382973268 -153489141 396827404 291548425#3 291548425#4 291548425#5 396827403 -493155080 410115277 291548424 410115278 171279286#0 171279286#1 171279286#2 296584564 158607008#10 158607008#11 410114946 158608079 182700075 153489134"/>
    </vehicle>
    <vehicle id="23" depart="23.00">
        <route edges="158607006 171279316#1 158607011#0 158607011#1 158607011#2 158607011#3 158607011#4 158607011#5 158607011#6 158607011#7 182700075 153489134 493155080 396827402 291548425#1 396827401 153489141 382973267 153489160#1 153489160#2 153489160#3 153489160#4 153489160#5 24063552 409891756 296584716 417844050 396359123 397089922 494505258 146627236 -146627238#1 -146627238#0 -147921592#3 -147921592#2 -396360055 -79779773 419730189#1 419730189#2 153489143 -153489143"/>
    </vehicle>
    <vehicle id="24" depart="24.00">
        <route edges="-152411187#3 152411187#3 152411187#4 152411187#5 152411187#6 152411187#7 152411187#8 171279270 34239676#0 34239676#1 34239676#2 34239674 152921637 151660779#0 151660779#1 151660779#2 151660779#3 158621099#2 158621099#3 158621099#4 158621099#5 61132800 296586087#6 296586087#7 296586087#8 296586087#9 296586087#10 296586087#11 171279302 154205428 -626505657 626505657 154205422"/>
    </vehicle>
    <vehicle id="25" depart="25.00">
        <route edges="498974902 -498974901 498974901 155225412#5 396357060 396356824 396356823 396356826 396357991 409840105 396357992#0 396357992#1 417844050 396559846 158967295 153489160#7 153489160#8 396330577 382973268 -153489141 396827404 291548425#3 291548425#4 291548425#5 396827403 -493155080 410115277 291548424 410115278 171279286#0 171279286#1 171279286#2 171279286#3 171279286#4 171279286#5 171279286#6 171279286#7 171279286#8 147280468 182700082 171279276 171279301 34239673 419945440#0 419945440#1 152411187#0 152411187#1 152411187#2 152411187#3 152411187#4 152411187#5 -152411187#5"/>
    </vehicle>
    <vehicle id="26" depart="26.00">
        <route edges="171279307#9 171279307#10 402188088 61132766#1 61132766#2 61132766#3 61132766#4 61132766#5 61132766#6 61132766#7 61132766#8 61132766#9 171279311#0 171279311#1 393439571 296586087#1 296586087#2 296586087#3 296586087#4 293802167 158621099#7 158621099#8 158621099#9 158621099#10 158621099#11 158621099#12 158621099#13 158621099#14 158621099#15 158621099#16 158621099#17 158621099#18 158621099#19 158621099#20 158621099#21 158621099#22 244821393 147377361#0 147377361#1 182700085 171279287 158621100#0 158621100#1 158621100#2 158621100#3"/>
    </vehicle>
    <vehicle id="29" depart="29.00">
        <route edges="108052762#0 108052762#1 -79211446#2 -79211446#1 -79211446#0 -108052761#1 -108052761#0 -79210643#5 -79210643#4 -79210643#3 -79210643#2 -79210643#1 -79210643#0 174392487#0"/>
    </vehicle>
    <vehicle id="30" depart="30.00">
        <route edges="152411187#7 -152411187#7 -152411187#6 -152411187#5 -152411187#4 -152411187#3 -152411187#2 -152411187#1 -152411187#0 -419945440#1 -419945440#0 171279295 182700083 158607008#0 158607008#1 158607008#2 158607008#3 158607008#4 158607008#5 158607008#6 158607008#7 158607008#8 158607008#9 158607008#10 158607008#11 410114946 158608079 182700075 153489134 493155080 396827402 291548425#1 396827401 153489141 382973267 153489160#1 153489160#2 153489160#3 153489160#4 153489160#5 24063552 409891756 396356825#0 396356825#1 409840415 409840416 296584718 396356822#0 396356822#1 396356822#2 396356822#3 396356413 396356410 396355605 426838402 79210046#0 79210046#1 79210046#2 79210046#3 -79210046#3"/>
    </vehicle>
    <vehicle id="33" depart="33.00">
        <route edges="-263536610#0 263536599#0 263536599#1 431785093 396354560 396355603 396355606 396355607 155225412#0 155225412#1 155225412#2"/>
    </vehicle>
    <vehicle id="35" depart="35.00">
        <route edges="590647263#0 590647263#1 590647262#3 590647262#4 590647262#0 28504819 263536610#4 387225369 396357991 409840105 396357992#0 396357992#1 417844050 396559846 158967295 153489160#7 153489160#8 396330577 382973268 -153489141 396827404 291548425#3 291548425#4 291548425#5 396827403 -493155080 410115277 291548424 410115278 171279286#0 171279286#1 171279286#2 296584564 158607008#10 158607008#11 410114946 182700076#0 182700076#1 182700076#2 182700076#3 182700076#4 182700076#5 182700076#6 182700076#7 158607007 147278379 158607002#0 419270100"/>
    </vehicle>
    <vehicle id="36" depart="36.00">
        <route edges="61132766#9 171279311#0 171279311#1 393439571 296586087#1 296586087#2 296586087#3 296586087#4 296586087#5 296586087#6 296586087#7 296586087#8 296586087#9 296586087#10 296586087#11 171279302 154205432 182700087#0 182700087#1 154205420 -147278371 171279277 171279289#0 171279289#1 171279310 182700093 147278373 -296586012 -296579361 296579358 -296579358"/>
    </vehicle>
    <vehicle id="37" depart="37.00">
        <route edges="590647263#1 590647262#3 590647262#4 590647262#0 28504819 263536610#4 387225369 396357991 409840105 396357992#0 396357992#1 417844050 396359123 397089922 494505258 146627236 -146627238#1 -146627238#0 -147921592#3 -147921592#2 -396360055 -79779773 419730189#1 419730189#2 153489143 -153489143"/>
    </vehicle>
    <vehicle id="39" depart="39.00">
        <route edges="-267121806#1 -267121806#0 224370083#1 -147921606 -28504807#9 28504807#9"/>
    </vehicle>
    <vehicle id="45" depart="45.00">
        <route edges="-263536599#0 263536610#0 263536610#1 451575428 147921607 155225412#3 155225412#4 155225412#5 396357060 396356824 396356823 396356826 396357991 409840105 396357992#0 396357992#1 417844050 396559846 158967295 153489160#7 153489160#8 396330577 382973268 -153489141 396827404 291548425#3 291548425#4 291548425#5 396827403 -493155080 410115277 291548424 410115278 171279286#0 171279286#1 171279286#2 171279286#3 171279286#4 171279286#5 171279286#6 171279286#7 171279286#8 147280468 182700082 171279276 171279301 171279265 182700083 158607008#0 158607008#1"/>
    </vehicle>
    <vehicle id="49" depart="49.00">
        <route edges="296586087#3 296586087#4 293802167 158621099#7 158621099#8 158621099#9 158621099#10 158621099#11 158621099#12 158621099#13 158621099#14 158621099#15 158621099#16 158621099#17 158621099#18 158621099#19 158621099#20 158621099#21 158621099#22 402575995 158604480#0 158604480#1 158604480#2 158604480#3 158604480#4 158604480#5 158604480#6 158604480#7 158604480#8 158604480#9 158604480#10 158604480#11 158604480#12 158604480#13 158604480#14 158604480#15 34239668 402575999 402575997 171279301 171279265 182700083 158607008#0 158607008#1 158607008#2 158607008#3 158607008#4 158607008#5 158607008#6 158607008#7 158607008#8 158607008#9 158607008#10 158607008#11 410114946 158608079 182700075 153489134 493155080 396827402 291548425#1 396827401 153489141 382973267 153489160#1 153489160#2 153489160#3 153489160#4 153489160#5 24063552 409891756 396356825#0 396356825#1 409840415 409840416 296584718 396356822#0 396356822#1 396356822#2 396356822#3 396356413 396356410 396355605 426838402 -426838402 -396355609 396355607 155225412#0"/>
    </vehicle>
    <vehicle id="50" depart="50.00">
        <route edges="396357992#1 417844050 396359123 397089922 494505258 494677111#0 494677111#1 -34856758 28504807#3 28504807#4 28504807#5 28504807#6 28504807#7 28504807#8 28504807#9 147921606"/>
    </vehicle>
    <vehicle id="51" depart="51.00">
        <route edges="-154139032 -149121809#0 28504807#2 34856758 -147921592#4 146627238#0 146627238#1 146627238#2 396359398 381723748#2 381723748#3 409891782 158967295 153489160#7 153489160#8 396330577 382973268 -153489141 396827404 291548425#3 291548425#4 291548425#5 396827403 -493155080 410115277 291548424 410115278 171279286#0 171279286#1 171279286#2 171279286#3 171279286#4 171279286#5 171279286#6 171279286#7 171279286#8 147280468 182700082 171279276 171279301 34239673 419945440#0 419945440#1 152411187#0 152411187#1 152411187#2 152411187#3 152411187#4 152411187#5 152411187#6 152411187#7 152411187#8 171279270 34239676#0 34239676#1 34239676#2 34239674 152921637 151660779#0 151660779#1 151660779#2 151660779#3 158621099#2 158621099#3 158621099#4 158621099#5 61132800 296586087#6 296586087#7 296586087#8 296586087#9 296586087#10 296586087#11"/>
    </vehicle>
    <vehicle id="52" depart="52.00">
        <route edges="432589841#2 432589841#3 432589841#4 432589841#5 158621105 158621099#14 158621099#15 158621099#16 158621099#17 158621099#18 158621099#19 158621099#20 158621099#21 158621099#22 402575995 158604480#0 158604480#1 158604480#2 158604480#3 158604480#4 158604480#5 158604480#6 158604480#7 158604480#8 158604480#9 158604480#10 158604480#11 158604480#12 158604480#13 158604480#14 158604480#15 34239668 402575999 402575997 171279301 171279265 182700083 158607008#0 158607008#1 158607008#2 158607008#3 158607008#4 158607008#5 158607008#6 158607008#7 158607008#8 158607008#9 158607008#10 158607008#11 410114946 158608079 182700075 153489134 493155080 396827402 291548425#1 396827401 153489141 382973267 153489160#1 153489160#2 153489160#3 153489160#4 153489160#5 24063552 409891756 396356825#0 396356825#1 409840415 409840416 296584718 396356822#0 396356822#1 396356822#2 498974900 -147921607 -451575428 -263536610#1 -147921590#1"/>
    </vehicle>
    <vehicle id="53" depart="53.00">
        <route edges="79210643#4 79210643#5 108052761#0 108052761#1 108052761#2 108052761#3 108052761#4 108052761#5 108052761#6 108052761#7"/>
    </vehicle>
    <vehicle id="54" depart="54.00">
        <route edges="-224370081#0 -224370082 396356823 396356826 396357991 409840105 396357992#0 396357992#1 417844050 396359123 397089922 494505258 494677111#0 494677111#1"/>
    </vehicle>
    <vehicle id="55" depart="55.00">
        <route edges="296577872 158621103#3 158621103#4 158621103#5 158621103#6 171279299#0 171279299#1 171279306 26780263#0 26780263#1 171279287 158621100#0 158621100#1 158621100#2 158621100#3 158621100#4 158621100#5 158621100#6 158621100#7 158621100#8 432589841#0 432589841#1 432589841#2 432589841#3 432589841#4 432589841#5 432589841#6 432589842 296586087#0 296586087#1 296586087#2 296586087#3 296586087#4 293802167 158621099#7 158621099#8 158621099#9"/>
    </vehicle>
    <vehicle id="57" depart="57.00">
        <route edges="61132766#9 171279311#0 171279311#1 393439571 296586087#1 296586087#2 296586087#3 296586087#4 296586087#5 296586087#6 296586087#7 296586087#8 296586087#9 296586087#10 296586087#11 171279302 154205432 182700087#0 182700087#1 154205420 -147278371 171279277 171279289#0 171279289#1 171279310 182700093 147278373 -296586012 -296579361 -296579360 -296580396#2 -296580396#1 -296580396#0 -182700091 296580400#0 296580400#1 182700090#0 182700090#1 152921634 -152411187#8 -152411187#7 -152411187#6"/>
    </vehicle>
    <vehicle id="60" depart="60.00">
        <route edges="-147921592#2 -396360055 396360052 396360054"/>
    </vehicle>
    <vehicle id="61" depart="61.00">
        <route edges="396392024 396396359#1 419730189#0 419730189#1 419730189#2 153489143 463643366#0 463643366#1 463643366#2 495777432 153489144 291548425#4 291548425#5 396827403 -493155080 410115277 291548424 410115278 171279286#0 171279286#1 171279286#2 171279286#3 171279286#4 171279286#5 171279286#6 171279286#7 171279286#8 147280468 402575991 158604481#0 158604481#1 158604481#2 158604481#3 158604481#4 158604481#5 158604481#6 158604481#7 402575993 147377361#0 147377361#1 182700085 171279287 171279300 402575995 158604480#0 158604480#1 158604480#2 158604480#3 395683654"/>
    </vehicle>
    <vehicle id="63" depart="63.00">
        <route edges="296579251 61132766#6 61132766#7 61132766#8 61132766#9 171279311#0 171279311#1 393439571 296586087#1 296586087#2 296586087#3 296586087#4 293802167 158621099#7 158621099#8 158621099#9 158621099#10 158621099#11 158621099#12 158621099#13 158621099#14 158621099#15 158621099#16 158621099#17 158621099#18 158621099#19 158621099#20 158621099#21 158621099#22 402575995 158604480#0 158604480#1 158604480#2 158604480#3 158604480#4 158604480#5 158604480#6 158604480#7 158604480#8 158604480#9 158604480#10 158604480#11 158604480#12 158604480#13 158604480#14 158604480#15 34239668 402575999 402575997 171279301 171279265 182700083 158607008#0 158607008#1 158607008#2 158607008#3 158607008#4 158607008#5 158607008#6 158607008#7 158607008#8 158607008#9 158607008#10 158607008#11 410114946 158608079 182700075 153489134 493155080 396827402 291548425#1 396827401 153489141 382973267 153489160#1 153489160#2 153489160#3 153489160#4 153489160#5 153489160#6 153489160#7 153489160#8"/>
    </vehicle>
    <vehicle id="64" depart="64.00">
        <route edges="158621099#11 158621099#12 158621106 432589842 296586087#0 296586087#1 296586087#2 296586087#3 296586087#4 296586087#5 296586087#6 296586087#7 296586087#8 296586087#9 296586087#10 296586087#11 171279302 154205432 182700087#0 182700087#1 154205420 -147278371 147278371"/>
    </vehicle>
    <vehicle id="65" depart="65.00">
        <route edges="151653730 -296585975 -679304328 -158783877#3 -158783877#2 -158783877#1 -158783877#0 158783881 158621100#8 432589841#0 393421557 158621099#18 158621099#19 158621099#20 158621099#21 158621099#22 402575995 158604480#0 158604480#1 158604480#2 158604480#3 158604480#4 158604480#5 158604480#6 158604480#7 158604480#8 158604480#9 158604480#10 158604480#11 158604480#12 158604480#13 158604480#14 158604480#15 34239668 402575999 402575997 171279301 171279265 182700083 158607008#0 158607008#1 158607008#2 158607008#3 158607008#4 158607008#5 158607008#6 158607008#7 158607008#8 158607008#9 158607008#10 158607008#11 410114946 158608079 182700075 153489134 493155080 396827402 291548425#1 396827401 153489141 382973267 153489160#1 153489160#2 153489160#3 153489160#4 153489160#5 24063552 409891756 396356825#0 396356825#1 409840415 409840416"/>
    </vehicle>
    <vehicle id="66" depart="66.00">
        <route edges="396360053 396360055 -396360055 -79779773 419730189#1 419730189#2 153489143 463643366#0 463643366#1 463643366#2 495777432 153489144 291548425#4 291548425#5 396827403 -493155080 410115277 291548424 410115278 171279286#0 171279286#1 171279286#2 171279286#3 171279286#4 171279286#5 171279286#6 171279286#7 171279286#8 147280468 402575991 158604481#0 158604481#1 158604481#2 158604481#3 158604481#4 158604481#5 158604481#6 158604481#7 402575993 147377361#0 147377361#1 182700085 171279287 158621100#0 158621100#1 158621100#2 158621100#3 158621100#4 158621100#5 158621100#6 158783882 158783877#0"/>
    </vehicle>
    <vehicle id="69" depart="69.00">
        <route edges="-495777432 495777432 153489144 291548425#4 291548425#5 396827403 -493155080 410115277 291548424 410115278 171279286#0 171279286#1 171279286#2 171279286#3 171279286#4 171279286#5 171279286#6 171279286#7 171279286#8 147280468 402575991 158604481#0 158604481#1 158604481#2 158604481#3 158604481#4 158604481#5 395683653 158604480#6 158604480#7 158604480#8 158604480#9 158604480#10 158604480#11 158604480#12 158604480#13 158604480#14 158604480#15"/>
    </vehicle>
    <vehicle id="70" depart="70.00">
        <route edges="171279299#0 171279299#1 171279306 26780263#0 26780263#1 171279287 171279300 402575995 158604480#0 158604480#1 158604480#2 158604480#3 158604480#4 158604480#5 158604480#6 158604480#7 158604480#8 158604480#9 158604480#10 158604480#11 158604480#12 158604480#13 158604480#14 158604480#15 34239668 402575999 402575997 171279301 171279265 182700083 158607008#0 158607008#1 158607008#2 158607008#3 158607008#4 158607008#5 158607008#6 158607008#7 158607008#8 158607008#9 158607008#10 158607008#11 410114946 158608079 182700075 153489134 493155080 396827402 291548425#1 396827401 153489141 382973267 153489160#1 153489160#2 153489160#3 153489160#4 153489160#5 24063552 409891756 396356825#0 396356825#1 409840415 396357993 -387225369 387225369 396357991 409840105 396357992#0 396357992#1"/>
    </vehicle>
    <vehicle id="71" depart="71.00">
        <route edges="451574737#0 154165012 28504807#7 28504807#8 152405524 267121806#0 267121806#1 267121806#2 224370080 224370082 396356822#0 396356822#1 396356822#2 396356822#3 396356413 396356410 396355605 396355604 396355608#0 396355608#1 396096892 -396414389 -544343924#1"/>
    </vehicle>
    <vehicle id="73" depart="73.00">
        <route edges="151615196#1 -151615196#1 -151615196#0 393411369 432589841#4 432589841#5 158621105 158621099#14 158621099#15 158621099#16"/>
    </vehicle>
    <vehicle id="74" depart="74.00">
        <route edges="419270099 158607002#2 158607002#3 182700093 182700092 147278388#0 147278366 147278371 154205425 171279293 158621099#0 158621099#1 158621099#2 158621099#3 158621099#4 158621099#5 158621099#6 158621099#7 158621099#8 158621099#9 158621099#10 158621099#11 158621099#12 158621099#13 158621099#14 158621099#15 158621099#16 158621099#17 158621099#18 158621099#19 158621099#20 158621099#21 158621099#22 402575995 158604480#0 158604480#1 158604480#2 158604480#3 158604480#4 158604480#5 158604480#6 158604480#7"/>
    </vehicle>
    <vehicle id="75" depart="75.00">
        <route edges="419270099 158607002#2 158607002#3 182700093 182700092 147278388#0 147278388#1 171279289#0 171279289#1 158607004#0 158607004#1 158607004#2 158607004#3 158607004#4 158607004#5 158607004#6 171279294#0 171279294#1 158607006 171279316#1 158607011#0 158607011#1 158607011#2 158607011#3 158607011#4 158607011#5 158607011#6 158607011#7 182700075 153489134 493155080 396827402 291548425#1 396827401 153489141 382973267 153489160#1 153489160#2 153489160#3 153489160#4 153489160#5 24063552 409891756 396356825#0 396356825#1 409840415 409840416 296584718 396356822#0 396356822#1 396356822#2 498974900 -147921607 147921607 155225412#3 155225412#4 155225412#5 396357060"/>
    </vehicle>
    <vehicle id="77" depart="77.00">
        <route edges="296577872 158621103#3 158621103#4 158621103#5 158621103#6 171279299#0 171279299#1 171279306 26780263#0 26780263#1 171279287 171279300 402575995 158604480#0 158604480#1 158604480#2 158604480#3 158604480#4 158604480#5 158604480#6 158604480#7 158604480#8 158604480#9 158604480#10 158604480#11 158604480#12 158604480#13 158604480#14 158604480#15 34239668 402575999 402575997 171279301 171279265 182700083 158607008#0 158607008#1 158607008#2 158607008#3 158607008#4 158607008#5 158607008#6 158607008#7 158607008#8 158607008#9 158607008#10 158607008#11 410114946 158608079 182700075 153489134 493155080 396827402 291548425#1 396827401 153489141 382973267 153489160#1 153489160#2 153489160#3 153489160#4 153489160#5 24063552 409891756 396356825#0 396356825#1 409840415 409840416 296584718 396356822#0 396356822#1 396356822#2 396356822#3 396356413 396356410 396355605 396355604 396355608#0 396355608#1 396096892 -396414389"/>
    </vehicle>
    <vehicle id="78" depart="78.00">
        <route edges="158621103#1 158621103#2 158621103#3 158621103#4 158621103#5 158621103#6 171279299#0 171279299#1 171279306 26780263#0 26780263#1 171279287 171279300 402575995 158604480#0 158604480#1 158604480#2 158604480#3 158604480#4 158604480#5 158604480#6 158604480#7 158604480#8 158604480#9 158604480#10 158604480#11 158604480#12 158604480#13 158604480#14 158604480#15 34239668 402575999 402575997 171279301 171279265 182700083 158607008#0 158607008#1 158607008#2 158607008#3 158607008#4 158607008#5 158607008#6 158607008#7 158607008#8 158607008#9 158607008#10 158607008#11 410114946 158608079 182700075 153489134 493155080 396827402 291548425#1 396827401 153489141 382973267 153489160#1 153489160#2 153489160#3 153489160#4 153489160#5 24063552 409891756 396356825#0 396356825#1 409840415 409840416 296584718 396356822#0 396356822#1 396356822#2 498974900 -147921607 -147921608#0 147921608#0"/>
    </vehicle>
    <vehicle id="79" depart="79.00">
        <route edges="-224370082 396356823 396356826 396357991 409840105 396357992#0 396357992#1 417844050 396559846 158967295 153489160#7 153489160#8 396330577 382973268 -153489141 396827404 291548425#3 291548425#4 291548425#5 396827403 -493155080 410115277 291548424 410115278 171279286#0 171279286#1 171279286#2 171279286#3 171279286#4 296584556"/>
    </vehicle>
    <vehicle id="80" depart="80.00">
        <route edges="154205425 171279293 158621099#0 158621099#1 158621099#2 158621099#3 158621099#4 158621099#5 158621099#6 158621099#7 158621099#8 158621099#9 158621099#10 158621099#11 158621099#12 158621099#13 158621099#14 158621099#15 158621099#16 158621099#17 158621099#18 158621099#19 158621099#20 158621099#21 158621099#22 244821393 147377361#0 147377361#1 182700085"/>
    </vehicle>
    <vehicle id="85" depart="85.00">
        <route edges="158621100#2 158621100#3 158621100#4 158621100#5 158621100#6 158783882 158783877#0 158783877#1 158783877#2 158783877#3 679304328 296585975 158783879 679300365#0 679300365#1 158621544#3 158621544#4 158621544#5"/>
    </vehicle>
    <vehicle id="87" depart="87.00">
        <route edges="396357992#1 417844050 396559846 158967295 153489160#7 153489160#8 153489160#9 153489160#0 153489160#1 153489160#2 153489160#3 153489160#4 153489160#5 24063552 409891756 396356825#0 396356825#1 409840415 409840416 296584718 224370081#0 149888648#0"/>
    </vehicle>
    <vehicle id="88" depart="88.00">
        <route edges="171279294#1 158607006 171279316#1 158607011#0 158607011#1 158607011#2 158607011#3 158607011#4 158607011#5 158607011#6 158607011#7 182700075 153489134 493155080 396827402 291548425#1 396827401 153489141 382973267 153489160#1 153489160#2 153489160#3 153489160#4 153489160#5 24063552 409891756 396356825#0 396356825#1 409840415 409840416 296584718 396356822#0 396356822#1 396356822#2 396356822#3 396356413 396356410 396355605 396355604 396355608#0 396355608#1"/>
    </vehicle>
    <vehicle id="89" depart="89.00">
        <route edges="-296586084#5 -296586084#4 -296586084#3 -296586084#2 -296586084#1 -296586084#0 -296586083#2 -296586083#1 -296586083#0 -296586082 -151615196#1 -151615196#0 393411369 432589841#4 432589841#5 158621105 158621099#14 158621099#15 158621099#16 158621099#17 158621099#18 158621099#19 158621099#20 158621099#21 158621099#22 402575995 158604480#0 158604480#1 158604480#2 158604480#3 158604480#4 158604480#5 158604480#6 158604480#7 158604480#8 158604480#9 158604480#10 158604480#11 158604480#12 158604480#13 158604480#14 158604480#15 34239668 402575999 402575997 171279301 171279265 182700083 158607008#0 158607008#1 158607008#2 158607008#3 158607008#4 158607008#5 158607008#6 158607008#7 158607008#8 158607008#9 158607008#10 158607008#11 410114946 158608079 182700075 153489134 493155080 396827402 291548425#1 396827401 153489141 382973267 153489160#1 153489160#2 153489160#3 153489160#4 153489160#5 24063552 409891756 296584716 417844050 396359123 397089922 494505258 494677111#0 494677111#1 -34856758 28504807#3 28504807#4 28504807#5 28504807#6 28504807#7 28504807#8"/>
    </vehicle>
    <vehicle id="91" depart="91.00">
        <route edges="-80789841#0 80789841#0 80789841#1 80789841#2 80789841#3 80789841#4 -296579358 296579361 296586012 171279275#0 171279275#1 147278388#1 171279289#0 171279289#1 158607004#0 158607004#1 158607004#2 158607004#3 158607004#4 158607004#5 158607004#6 171279294#0 171279294#1 158607006 171279316#1 158607011#0 158607011#1 158607011#2 158607011#3 158607011#4 158607011#5 158607011#6 158607011#7 182700075 153489134 493155080 396827402 291548425#1 396827401 153489141 382973267 153489160#1 153489160#2 153489160#3 153489160#4 153489160#5 24063552 409891756 396356825#0 396356825#1 409840415 409840416 296584718 396356822#0 396356822#1 396356822#2 396356822#3 149888643#0 149888643#1"/>
    </vehicle>